
OS:Version,
  {045b5716-1e4e-4ce4-9de7-39e86dcb5c6b}, !- Handle
  1.9.0;                                  !- Version Identifier

OS:Facility,
  {50f31be2-7d92-4071-aa54-111b814f5778}; !- Handle

OS:Building,
  {1535a042-22d6-455f-b6ba-148c900b7e36}, !- Handle
  Building 1,                             !- Name
  ,                                       !- Building Sector Type
  ,                                       !- North Axis {deg}
  ,                                       !- Nominal Floor to Floor Height {m}
  ,                                       !- Space Type Name
  ,                                       !- Default Construction Set Name
  ;                                       !- Default Schedule Set Name

OS:BuildingStory,
  {b3386ce4-600b-4f99-8cf5-e8a07dc8f272}, !- Handle
  Level 1,                                !- Name
  ,                                       !- Nominal Z Coordinate {m}
  ,                                       !- Nominal Floor to Floor Height {m}
  ,                                       !- Default Construction Set Name
  ,                                       !- Default Schedule Set Name
  ;                                       !- Group Rendering Name

OS:BuildingStory,
  {25dbb966-1115-44a6-b0ee-97781b01ce93}, !- Handle
  Level 2,                                !- Name
  ,                                       !- Nominal Z Coordinate {m}
  3.9624,                                 !- Nominal Floor to Floor Height {m}
  ,                                       !- Default Construction Set Name
  ,                                       !- Default Schedule Set Name
  ;                                       !- Group Rendering Name

OS:ShadingSurfaceGroup,
  {d917a26c-2f01-4733-bb04-e6c4215a9b21}, !- Handle
  Shading Surface Group 1,                !- Name
  Building;                               !- Shading Surface Type

OS:Space,
  {49c6ca8b-1f50-499c-baec-78859f0a8507}, !- Handle
  sp-1-Space,                             !- Name
  ,                                       !- Space Type Name
  ,                                       !- Default Construction Set Name
  ,                                       !- Default Schedule Set Name
  ,                                       !- Direction of Relative North {deg}
  ,                                       !- X Origin {m}
  ,                                       !- Y Origin {m}
  ,                                       !- Z Origin {m}
  {b3386ce4-600b-4f99-8cf5-e8a07dc8f272}, !- Building Story Name
  {7e3c63fb-4c4b-4ffd-a045-fac434b782d6}; !- Thermal Zone Name

OS:Surface,
  {c93087c4-fc1f-4067-9d3c-84ab47255e2c}, !- Handle
  Surface 1,                              !- Name
  Floor,                                  !- Surface Type
  ,                                       !- Construction Name
  {49c6ca8b-1f50-499c-baec-78859f0a8507}, !- Space Name
  Ground,                                 !- Outside Boundary Condition
  ,                                       !- Outside Boundary Condition Object
  NoSun,                                  !- Sun Exposure
  NoWind,                                 !- Wind Exposure
  ,                                       !- View Factor to Ground
  ,                                       !- Number of Vertices
  0, 0, 0,                                !- X,Y,Z Vertex 1 {m}
  0, 9.144, 0,                            !- X,Y,Z Vertex 2 {m}
  9.144, 9.144, 0,                        !- X,Y,Z Vertex 3 {m}
  9.144, 0, 0;                            !- X,Y,Z Vertex 4 {m}

OS:Surface,
  {351ddada-5b97-4605-bfc7-a27f267d8396}, !- Handle
  Surface 2,                              !- Name
  Wall,                                   !- Surface Type
  ,                                       !- Construction Name
  {49c6ca8b-1f50-499c-baec-78859f0a8507}, !- Space Name
  Outdoors,                               !- Outside Boundary Condition
  ,                                       !- Outside Boundary Condition Object
  SunExposed,                             !- Sun Exposure
  WindExposed,                            !- Wind Exposure
  ,                                       !- View Factor to Ground
  ,                                       !- Number of Vertices
  0, 0, 0,                                !- X,Y,Z Vertex 1 {m}
  0, 0, 3.9624,                           !- X,Y,Z Vertex 2 {m}
  0, 9.144, 3.9624,                       !- X,Y,Z Vertex 3 {m}
  0, 9.144, 0;                            !- X,Y,Z Vertex 4 {m}

OS:SubSurface,
  {7c2de6e6-5214-467e-9a1f-c22860504812}, !- Handle
  Sub Surface 1,                          !- Name
  FixedWindow,                            !- Sub Surface Type
  ,                                       !- Construction Name
  {351ddada-5b97-4605-bfc7-a27f267d8396}, !- Surface Name
  ,                                       !- Outside Boundary Condition Object
  ,                                       !- View Factor to Ground
  ,                                       !- Shading Control Name
  ,                                       !- Frame and Divider Name
  ,                                       !- Multiplier
  ,                                       !- Number of Vertices
  0, 7.52475, 0.9144,                     !- X,Y,Z Vertex 1 {m}
  0, 6.61035, 0.9144,                     !- X,Y,Z Vertex 2 {m}
  0, 6.61035, 2.1336,                     !- X,Y,Z Vertex 3 {m}
  0, 7.52475, 2.1336;                     !- X,Y,Z Vertex 4 {m}

OS:SubSurface,
  {c314b176-15ba-44aa-b543-f57094eae91d}, !- Handle
  Sub Surface 2,                          !- Name
  FixedWindow,                            !- Sub Surface Type
  ,                                       !- Construction Name
  {351ddada-5b97-4605-bfc7-a27f267d8396}, !- Surface Name
  ,                                       !- Outside Boundary Condition Object
  ,                                       !- View Factor to Ground
  ,                                       !- Shading Control Name
  ,                                       !- Frame and Divider Name
  ,                                       !- Multiplier
  ,                                       !- Number of Vertices
  0, 5.0292, 0.9144,                      !- X,Y,Z Vertex 1 {m}
  0, 4.1148, 0.9144,                      !- X,Y,Z Vertex 2 {m}
  0, 4.1148, 2.1336,                      !- X,Y,Z Vertex 3 {m}
  0, 5.0292, 2.1336;                      !- X,Y,Z Vertex 4 {m}

OS:SubSurface,
  {0a042906-02cb-49f2-8df8-de9e3bff0e77}, !- Handle
  Sub Surface 3,                          !- Name
  FixedWindow,                            !- Sub Surface Type
  ,                                       !- Construction Name
  {351ddada-5b97-4605-bfc7-a27f267d8396}, !- Surface Name
  ,                                       !- Outside Boundary Condition Object
  ,                                       !- View Factor to Ground
  ,                                       !- Shading Control Name
  ,                                       !- Frame and Divider Name
  ,                                       !- Multiplier
  ,                                       !- Number of Vertices
  0, 2.53365, 0.9144,                     !- X,Y,Z Vertex 1 {m}
  0, 1.61925, 0.9144,                     !- X,Y,Z Vertex 2 {m}
  0, 1.61925, 2.1336,                     !- X,Y,Z Vertex 3 {m}
  0, 2.53365, 2.1336;                     !- X,Y,Z Vertex 4 {m}

OS:Surface,
  {c5e42266-871d-48f1-be55-0bbab43563f6}, !- Handle
  Surface 3,                              !- Name
  RoofCeiling,                            !- Surface Type
  ,                                       !- Construction Name
  {49c6ca8b-1f50-499c-baec-78859f0a8507}, !- Space Name
  Outdoors,                               !- Outside Boundary Condition
  ,                                       !- Outside Boundary Condition Object
  SunExposed,                             !- Sun Exposure
  WindExposed,                            !- Wind Exposure
  ,                                       !- View Factor to Ground
  ,                                       !- Number of Vertices
  0, 0, 3.9624,                           !- X,Y,Z Vertex 1 {m}
  9.144, 0, 3.9624,                       !- X,Y,Z Vertex 2 {m}
  9.144, 9.144, 3.9624,                   !- X,Y,Z Vertex 3 {m}
  0, 9.144, 3.9624;                       !- X,Y,Z Vertex 4 {m}

OS:Surface,
  {42b143bc-63f3-48e9-a9e6-0413c994f7f8}, !- Handle
  Surface 4,                              !- Name
  Wall,                                   !- Surface Type
  ,                                       !- Construction Name
  {49c6ca8b-1f50-499c-baec-78859f0a8507}, !- Space Name
  Outdoors,                               !- Outside Boundary Condition
  ,                                       !- Outside Boundary Condition Object
  SunExposed,                             !- Sun Exposure
  WindExposed,                            !- Wind Exposure
  ,                                       !- View Factor to Ground
  ,                                       !- Number of Vertices
  0, 9.144, 0,                            !- X,Y,Z Vertex 1 {m}
  0, 9.144, 3.9624,                       !- X,Y,Z Vertex 2 {m}
  9.144, 9.144, 3.9624,                   !- X,Y,Z Vertex 3 {m}
  9.144, 9.144, 0;                        !- X,Y,Z Vertex 4 {m}

OS:SubSurface,
  {4b83f258-e6df-4aff-b40c-fd0fd4463e43}, !- Handle
  Sub Surface 4,                          !- Name
  FixedWindow,                            !- Sub Surface Type
  ,                                       !- Construction Name
  {42b143bc-63f3-48e9-a9e6-0413c994f7f8}, !- Surface Name
  ,                                       !- Outside Boundary Condition Object
  ,                                       !- View Factor to Ground
  ,                                       !- Shading Control Name
  ,                                       !- Frame and Divider Name
  ,                                       !- Multiplier
  ,                                       !- Number of Vertices
  7.534275, 9.144, 0.9144,                !- X,Y,Z Vertex 1 {m}
  6.619875, 9.144, 0.9144,                !- X,Y,Z Vertex 2 {m}
  6.619875, 9.144, 2.1336,                !- X,Y,Z Vertex 3 {m}
  7.534275, 9.144, 2.1336;                !- X,Y,Z Vertex 4 {m}

OS:SubSurface,
  {07fcdc17-dd05-4fa5-b8d9-83eb2a283718}, !- Handle
  Sub Surface 5,                          !- Name
  FixedWindow,                            !- Sub Surface Type
  ,                                       !- Construction Name
  {42b143bc-63f3-48e9-a9e6-0413c994f7f8}, !- Surface Name
  ,                                       !- Outside Boundary Condition Object
  ,                                       !- View Factor to Ground
  ,                                       !- Shading Control Name
  ,                                       !- Frame and Divider Name
  ,                                       !- Multiplier
  ,                                       !- Number of Vertices
  5.04825, 9.144, 0.9144,                 !- X,Y,Z Vertex 1 {m}
  4.13385, 9.144, 0.9144,                 !- X,Y,Z Vertex 2 {m}
  4.13385, 9.144, 2.1336,                 !- X,Y,Z Vertex 3 {m}
  5.04825, 9.144, 2.1336;                 !- X,Y,Z Vertex 4 {m}

OS:SubSurface,
  {44aa51fa-7c3a-4d65-bfec-924e48b816b0}, !- Handle
  Sub Surface 6,                          !- Name
  FixedWindow,                            !- Sub Surface Type
  ,                                       !- Construction Name
  {42b143bc-63f3-48e9-a9e6-0413c994f7f8}, !- Surface Name
  ,                                       !- Outside Boundary Condition Object
  ,                                       !- View Factor to Ground
  ,                                       !- Shading Control Name
  ,                                       !- Frame and Divider Name
  ,                                       !- Multiplier
  ,                                       !- Number of Vertices
  2.562225, 9.144, 0.9144,                !- X,Y,Z Vertex 1 {m}
  1.647825, 9.144, 0.9144,                !- X,Y,Z Vertex 2 {m}
  1.647825, 9.144, 2.1336,                !- X,Y,Z Vertex 3 {m}
  2.562225, 9.144, 2.1336;                !- X,Y,Z Vertex 4 {m}

OS:Surface,
  {eeff233f-9668-4074-be18-4b753f66bd85}, !- Handle
  Surface 5,                              !- Name
  Wall,                                   !- Surface Type
  ,                                       !- Construction Name
  {49c6ca8b-1f50-499c-baec-78859f0a8507}, !- Space Name
  Outdoors,                               !- Outside Boundary Condition
  ,                                       !- Outside Boundary Condition Object
  SunExposed,                             !- Sun Exposure
  WindExposed,                            !- Wind Exposure
  ,                                       !- View Factor to Ground
  ,                                       !- Number of Vertices
  9.144, 9.144, 0,                        !- X,Y,Z Vertex 1 {m}
  9.144, 9.144, 3.9624,                   !- X,Y,Z Vertex 2 {m}
  9.144, 0, 3.9624,                       !- X,Y,Z Vertex 3 {m}
  9.144, 0, 0;                            !- X,Y,Z Vertex 4 {m}

OS:SubSurface,
  {0770d4a7-c266-4b98-82d8-e3a378e70b74}, !- Handle
  Sub Surface 7,                          !- Name
  FixedWindow,                            !- Sub Surface Type
  ,                                       !- Construction Name
  {eeff233f-9668-4074-be18-4b753f66bd85}, !- Surface Name
  ,                                       !- Outside Boundary Condition Object
  ,                                       !- View Factor to Ground
  ,                                       !- Shading Control Name
  ,                                       !- Frame and Divider Name
  ,                                       !- Multiplier
  ,                                       !- Number of Vertices
  9.144, 1.6319501016, 0.9144,            !- X,Y,Z Vertex 1 {m}
  9.144, 2.5463501016, 0.9144,            !- X,Y,Z Vertex 2 {m}
  9.144, 2.5463501016, 2.1336,            !- X,Y,Z Vertex 3 {m}
  9.144, 1.6319501016, 2.1336;            !- X,Y,Z Vertex 4 {m}

OS:SubSurface,
  {b6404edc-0b4b-483e-8147-d19769ff5227}, !- Handle
  Sub Surface 8,                          !- Name
  FixedWindow,                            !- Sub Surface Type
  ,                                       !- Construction Name
  {eeff233f-9668-4074-be18-4b753f66bd85}, !- Surface Name
  ,                                       !- Outside Boundary Condition Object
  ,                                       !- View Factor to Ground
  ,                                       !- Shading Control Name
  ,                                       !- Frame and Divider Name
  ,                                       !- Multiplier
  ,                                       !- Number of Vertices
  9.144, 4.1148, 0.9144,                  !- X,Y,Z Vertex 1 {m}
  9.144, 5.0292, 0.9144,                  !- X,Y,Z Vertex 2 {m}
  9.144, 5.0292, 2.1336,                  !- X,Y,Z Vertex 3 {m}
  9.144, 4.1148, 2.1336;                  !- X,Y,Z Vertex 4 {m}

OS:SubSurface,
  {a665d048-782e-4915-a9ae-13f3e7f66f32}, !- Handle
  Sub Surface 9,                          !- Name
  FixedWindow,                            !- Sub Surface Type
  ,                                       !- Construction Name
  {eeff233f-9668-4074-be18-4b753f66bd85}, !- Surface Name
  ,                                       !- Outside Boundary Condition Object
  ,                                       !- View Factor to Ground
  ,                                       !- Shading Control Name
  ,                                       !- Frame and Divider Name
  ,                                       !- Multiplier
  ,                                       !- Number of Vertices
  9.144, 6.61035, 0.9144,                 !- X,Y,Z Vertex 1 {m}
  9.144, 7.52475, 0.9144,                 !- X,Y,Z Vertex 2 {m}
  9.144, 7.52475, 2.1336,                 !- X,Y,Z Vertex 3 {m}
  9.144, 6.61035, 2.1336;                 !- X,Y,Z Vertex 4 {m}

OS:Surface,
  {8c36af48-c12e-4fc6-9076-082dd1c8932b}, !- Handle
  Surface 6,                              !- Name
  Wall,                                   !- Surface Type
  ,                                       !- Construction Name
  {49c6ca8b-1f50-499c-baec-78859f0a8507}, !- Space Name
  Outdoors,                               !- Outside Boundary Condition
  ,                                       !- Outside Boundary Condition Object
  SunExposed,                             !- Sun Exposure
  WindExposed,                            !- Wind Exposure
  ,                                       !- View Factor to Ground
  ,                                       !- Number of Vertices
  9.144, 0, 0,                            !- X,Y,Z Vertex 1 {m}
  9.144, 0, 3.9624,                       !- X,Y,Z Vertex 2 {m}
  0, 0, 3.9624,                           !- X,Y,Z Vertex 3 {m}
  0, 0, 0;                                !- X,Y,Z Vertex 4 {m}

OS:SubSurface,
  {eb1ac864-ada5-4a71-a3dd-08aabb85b171}, !- Handle
  Sub Surface 10,                         !- Name
  FixedWindow,                            !- Sub Surface Type
  ,                                       !- Construction Name
  {8c36af48-c12e-4fc6-9076-082dd1c8932b}, !- Surface Name
  ,                                       !- Outside Boundary Condition Object
  ,                                       !- View Factor to Ground
  ,                                       !- Shading Control Name
  ,                                       !- Frame and Divider Name
  ,                                       !- Multiplier
  ,                                       !- Number of Vertices
  1.666875, 0, 0.9144,                    !- X,Y,Z Vertex 1 {m}
  2.581275, 0, 0.9144,                    !- X,Y,Z Vertex 2 {m}
  2.581275, 0, 2.1336,                    !- X,Y,Z Vertex 3 {m}
  1.666875, 0, 2.1336;                    !- X,Y,Z Vertex 4 {m}

OS:ShadingSurface,
  {82bf4372-73df-4e31-989b-66bbb07c178e}, !- Handle
  Shading Surface 1,                      !- Name
  ,                                       !- Construction Name
  {d917a26c-2f01-4733-bb04-e6c4215a9b21}, !- Shading Surface Group Name
  ,                                       !- Transmittance Schedule Name
  ,                                       !- Number of Vertices
  1.666875, 0, 1.49861016,                !- X,Y,Z Vertex 1 {m}
  1.666875, -0.4572, 1.49861016,          !- X,Y,Z Vertex 2 {m}
  2.581275, -0.4572, 1.49861016,          !- X,Y,Z Vertex 3 {m}
  2.581275, 0, 1.49861016;                !- X,Y,Z Vertex 4 {m}

OS:SubSurface,
  {0fba9e2d-d2e3-40f4-a866-510b12a9d3c8}, !- Handle
  Sub Surface 11,                         !- Name
  FixedWindow,                            !- Sub Surface Type
  ,                                       !- Construction Name
  {8c36af48-c12e-4fc6-9076-082dd1c8932b}, !- Surface Name
  ,                                       !- Outside Boundary Condition Object
  ,                                       !- View Factor to Ground
  ,                                       !- Shading Control Name
  ,                                       !- Frame and Divider Name
  ,                                       !- Multiplier
  ,                                       !- Number of Vertices
  4.1529, 0, 0.9144,                      !- X,Y,Z Vertex 1 {m}
  5.0673, 0, 0.9144,                      !- X,Y,Z Vertex 2 {m}
  5.0673, 0, 2.1336,                      !- X,Y,Z Vertex 3 {m}
  4.1529, 0, 2.1336;                      !- X,Y,Z Vertex 4 {m}

OS:SubSurface,
  {6834028a-8679-4f86-9d65-7801e8bf7030}, !- Handle
  Sub Surface 12,                         !- Name
  FixedWindow,                            !- Sub Surface Type
  ,                                       !- Construction Name
  {8c36af48-c12e-4fc6-9076-082dd1c8932b}, !- Surface Name
  ,                                       !- Outside Boundary Condition Object
  ,                                       !- View Factor to Ground
  ,                                       !- Shading Control Name
  ,                                       !- Frame and Divider Name
  ,                                       !- Multiplier
  ,                                       !- Number of Vertices
  6.619875, 0, 0.9144,                    !- X,Y,Z Vertex 1 {m}
  7.534275, 0, 0.9144,                    !- X,Y,Z Vertex 2 {m}
  7.534275, 0, 2.1336,                    !- X,Y,Z Vertex 3 {m}
  6.619875, 0, 2.1336;                    !- X,Y,Z Vertex 4 {m}

OS:ThermalZone,
  {7e3c63fb-4c4b-4ffd-a045-fac434b782d6}, !- Handle
  sp-1-Zone,                              !- Name
  ,                                       !- Multiplier
  ,                                       !- Ceiling Height {m}
  ,                                       !- Volume {m3}
  ,                                       !- Floor Area {m2}
  ,                                       !- Zone Inside Convection Algorithm
  ,                                       !- Zone Outside Convection Algorithm
  ,                                       !- Zone Conditioning Equipment List Name
  {bf24274c-313c-4bfd-8036-4c7ed12ec277}, !- Zone Air Inlet Port List
  {512ac893-a6aa-4e59-8757-2bca0dd4a3a6}, !- Zone Air Exhaust Port List
  {256840ef-6903-4da7-a3a5-30319f2281a9}, !- Zone Air Node Name
  ,                                       !- Zone Return Air Node Name
  ,                                       !- Primary Daylighting Control Name
  ,                                       !- Fraction of Zone Controlled by Primary Daylighting Control
  ,                                       !- Secondary Daylighting Control Name
  ,                                       !- Fraction of Zone Controlled by Secondary Daylighting Control
  ,                                       !- Illuminance Map Name
  ,                                       !- Group Rendering Name
  ,                                       !- Thermostat Name
  No;                                     !- Use Ideal Air Loads

OS:Node,
  {2b9dcba9-3235-48aa-9841-e89fc7569878}, !- Handle
  Node 1,                                 !- Name
  {256840ef-6903-4da7-a3a5-30319f2281a9}, !- Inlet Port
  ;                                       !- Outlet Port

OS:Connection,
  {256840ef-6903-4da7-a3a5-30319f2281a9}, !- Handle
  {c428bbf7-11f9-4608-be43-2cc70e5474db}, !- Name
  {7e3c63fb-4c4b-4ffd-a045-fac434b782d6}, !- Source Object
  11,                                     !- Outlet Port
  {2b9dcba9-3235-48aa-9841-e89fc7569878}, !- Target Object
  2;                                      !- Inlet Port

OS:PortList,
  {bf24274c-313c-4bfd-8036-4c7ed12ec277}, !- Handle
  Port List 1,                            !- Name
  {7e3c63fb-4c4b-4ffd-a045-fac434b782d6}; !- HVAC Component

OS:PortList,
  {512ac893-a6aa-4e59-8757-2bca0dd4a3a6}, !- Handle
  Port List 2,                            !- Name
  {7e3c63fb-4c4b-4ffd-a045-fac434b782d6}; !- HVAC Component

OS:Sizing:Zone,
  {8cf6a21d-d064-4736-a822-a089d08bec45}, !- Handle
  {7e3c63fb-4c4b-4ffd-a045-fac434b782d6}, !- Zone or ZoneList Name
  14,                                     !- Zone Cooling Design Supply Air Temperature {C}
  40,                                     !- Zone Heating Design Supply Air Temperature {C}
  0.0085,                                 !- Zone Cooling Design Supply Air Humidity Ratio {kg-H2O/kg-air}
  0.008,                                  !- Zone Heating Design Supply Air Humidity Ratio {kg-H2O/kg-air}
  ,                                       !- Zone Heating Sizing Factor
  ,                                       !- Zone Cooling Sizing Factor
  DesignDay,                              !- Cooling Design Air Flow Method
  ,                                       !- Cooling Design Air Flow Rate {m3/s}
  ,                                       !- Cooling Minimum Air Flow per Zone Floor Area {m3/s-m2}
  ,                                       !- Cooling Minimum Air Flow {m3/s}
  ,                                       !- Cooling Minimum Air Flow Fraction
  DesignDay,                              !- Heating Design Air Flow Method
  ,                                       !- Heating Design Air Flow Rate {m3/s}
  ,                                       !- Heating Maximum Air Flow per Zone Floor Area {m3/s-m2}
  ,                                       !- Heating Maximum Air Flow {m3/s}
  ,                                       !- Heating Maximum Air Flow Fraction
  ,                                       !- Design Zone Air Distribution Effectiveness in Cooling Mode
  ;                                       !- Design Zone Air Distribution Effectiveness in Heating Mode

OS:ZoneHVAC:EquipmentList,
  {65cab0ce-9cd9-4d7a-82f9-b7c6849c54ed}, !- Handle
  Zone HVAC Equipment List 1,             !- Name
  {7e3c63fb-4c4b-4ffd-a045-fac434b782d6}; !- Thermal Zone

