
OS:Version,
  {69da1ac7-9599-43dd-8509-7e9d89b78902}, !- Handle
  1.12.2;                                 !- Version Identifier

OS:Facility,
  {39c25d9e-43db-4bf3-87b7-262ed5f346c5}; !- Handle

OS:Building,
  {ace24a09-dc8a-4413-aadc-428640ba0a9c}, !- Handle
  Building 1,                             !- Name
  ,                                       !- Building Sector Type
  ,                                       !- North Axis {deg}
  ,                                       !- Nominal Floor to Floor Height {m}
  ,                                       !- Space Type Name
  ,                                       !- Default Construction Set Name
  ;                                       !- Default Schedule Set Name

OS:BuildingStory,
  {b785679b-259e-41ec-ac26-aad381f1424d}, !- Handle
  Level 1,                                !- Name
  ,                                       !- Nominal Z Coordinate {m}
  ,                                       !- Nominal Floor to Floor Height {m}
  ,                                       !- Default Construction Set Name
  ,                                       !- Default Schedule Set Name
  ;                                       !- Group Rendering Name

OS:BuildingStory,
  {79936215-3a63-4577-9e4f-85f702e0587b}, !- Handle
  Level 2,                                !- Name
  ,                                       !- Nominal Z Coordinate {m}
  3.9624,                                 !- Nominal Floor to Floor Height {m}
  ,                                       !- Default Construction Set Name
  ,                                       !- Default Schedule Set Name
  ;                                       !- Group Rendering Name

OS:ShadingSurfaceGroup,
  {8e6017a9-8823-4325-9b4a-f2df0b241076}, !- Handle
  Shading Surface Group 1,                !- Name
  Building;                               !- Shading Surface Type

OS:Space,
  {ffaa121d-81d3-4bf6-97a6-5e02fa800d8f}, !- Handle
  sp-1-Space,                             !- Name
  ,                                       !- Space Type Name
  ,                                       !- Default Construction Set Name
  ,                                       !- Default Schedule Set Name
  ,                                       !- Direction of Relative North {deg}
  ,                                       !- X Origin {m}
  ,                                       !- Y Origin {m}
  ,                                       !- Z Origin {m}
  {b785679b-259e-41ec-ac26-aad381f1424d}, !- Building Story Name
  {2f6fa7c7-b8e6-487b-a11b-8c8c7edd643d}; !- Thermal Zone Name

OS:Surface,
  {239160b3-65e4-4d7a-ba30-264e1cc46ae6}, !- Handle
  Surface 1,                              !- Name
  Floor,                                  !- Surface Type
  ,                                       !- Construction Name
  {ffaa121d-81d3-4bf6-97a6-5e02fa800d8f}, !- Space Name
  Ground,                                 !- Outside Boundary Condition
  ,                                       !- Outside Boundary Condition Object
  NoSun,                                  !- Sun Exposure
  NoWind,                                 !- Wind Exposure
  ,                                       !- View Factor to Ground
  ,                                       !- Number of Vertices
  0, 0, 0,                                !- X,Y,Z Vertex 1 {m}
  0, 9.144, 0,                            !- X,Y,Z Vertex 2 {m}
  9.144, 9.144, 0,                        !- X,Y,Z Vertex 3 {m}
  9.144, 0, 0;                            !- X,Y,Z Vertex 4 {m}

OS:Surface,
  {ad92a1be-04d5-40db-b047-39570daef32b}, !- Handle
  Surface 2,                              !- Name
  Wall,                                   !- Surface Type
  ,                                       !- Construction Name
  {ffaa121d-81d3-4bf6-97a6-5e02fa800d8f}, !- Space Name
  Outdoors,                               !- Outside Boundary Condition
  ,                                       !- Outside Boundary Condition Object
  SunExposed,                             !- Sun Exposure
  WindExposed,                            !- Wind Exposure
  ,                                       !- View Factor to Ground
  ,                                       !- Number of Vertices
  0, 0, 0,                                !- X,Y,Z Vertex 1 {m}
  0, 0, 3.9624,                           !- X,Y,Z Vertex 2 {m}
  0, 9.144, 3.9624,                       !- X,Y,Z Vertex 3 {m}
  0, 9.144, 0;                            !- X,Y,Z Vertex 4 {m}

OS:SubSurface,
  {cf9038c3-f9d0-4c9b-b600-ccb39f87fa04}, !- Handle
  Sub Surface 1,                          !- Name
  FixedWindow,                            !- Sub Surface Type
  ,                                       !- Construction Name
  {ad92a1be-04d5-40db-b047-39570daef32b}, !- Surface Name
  ,                                       !- Outside Boundary Condition Object
  ,                                       !- View Factor to Ground
  ,                                       !- Shading Control Name
  ,                                       !- Frame and Divider Name
  ,                                       !- Multiplier
  ,                                       !- Number of Vertices
  0, 7.52475, 0.9144,                     !- X,Y,Z Vertex 1 {m}
  0, 6.61035, 0.9144,                     !- X,Y,Z Vertex 2 {m}
  0, 6.61035, 2.1336,                     !- X,Y,Z Vertex 3 {m}
  0, 7.52475, 2.1336;                     !- X,Y,Z Vertex 4 {m}

OS:SubSurface,
  {d85724f9-0fb2-4427-89e7-f33e05a22f9f}, !- Handle
  Sub Surface 2,                          !- Name
  FixedWindow,                            !- Sub Surface Type
  ,                                       !- Construction Name
  {ad92a1be-04d5-40db-b047-39570daef32b}, !- Surface Name
  ,                                       !- Outside Boundary Condition Object
  ,                                       !- View Factor to Ground
  ,                                       !- Shading Control Name
  ,                                       !- Frame and Divider Name
  ,                                       !- Multiplier
  ,                                       !- Number of Vertices
  0, 5.0292, 0.9144,                      !- X,Y,Z Vertex 1 {m}
  0, 4.1148, 0.9144,                      !- X,Y,Z Vertex 2 {m}
  0, 4.1148, 2.1336,                      !- X,Y,Z Vertex 3 {m}
  0, 5.0292, 2.1336;                      !- X,Y,Z Vertex 4 {m}

OS:SubSurface,
  {04cec4ee-657b-4dce-b5e2-5a21f59c5300}, !- Handle
  Sub Surface 3,                          !- Name
  FixedWindow,                            !- Sub Surface Type
  ,                                       !- Construction Name
  {ad92a1be-04d5-40db-b047-39570daef32b}, !- Surface Name
  ,                                       !- Outside Boundary Condition Object
  ,                                       !- View Factor to Ground
  ,                                       !- Shading Control Name
  ,                                       !- Frame and Divider Name
  ,                                       !- Multiplier
  ,                                       !- Number of Vertices
  0, 2.53365, 0.9144,                     !- X,Y,Z Vertex 1 {m}
  0, 1.61925, 0.9144,                     !- X,Y,Z Vertex 2 {m}
  0, 1.61925, 2.1336,                     !- X,Y,Z Vertex 3 {m}
  0, 2.53365, 2.1336;                     !- X,Y,Z Vertex 4 {m}

OS:Surface,
  {735b6f72-4877-494a-bf1f-ce56adc75d2c}, !- Handle
  Surface 3,                              !- Name
  RoofCeiling,                            !- Surface Type
  ,                                       !- Construction Name
  {ffaa121d-81d3-4bf6-97a6-5e02fa800d8f}, !- Space Name
  Outdoors,                               !- Outside Boundary Condition
  ,                                       !- Outside Boundary Condition Object
  SunExposed,                             !- Sun Exposure
  WindExposed,                            !- Wind Exposure
  ,                                       !- View Factor to Ground
  ,                                       !- Number of Vertices
  0, 0, 3.9624,                           !- X,Y,Z Vertex 1 {m}
  9.144, 0, 3.9624,                       !- X,Y,Z Vertex 2 {m}
  9.144, 9.144, 3.9624,                   !- X,Y,Z Vertex 3 {m}
  0, 9.144, 3.9624;                       !- X,Y,Z Vertex 4 {m}

OS:Surface,
  {113b07d7-b51e-4d4a-a2a7-81da73cf9c08}, !- Handle
  Surface 4,                              !- Name
  Wall,                                   !- Surface Type
  ,                                       !- Construction Name
  {ffaa121d-81d3-4bf6-97a6-5e02fa800d8f}, !- Space Name
  Outdoors,                               !- Outside Boundary Condition
  ,                                       !- Outside Boundary Condition Object
  SunExposed,                             !- Sun Exposure
  WindExposed,                            !- Wind Exposure
  ,                                       !- View Factor to Ground
  ,                                       !- Number of Vertices
  0, 9.144, 0,                            !- X,Y,Z Vertex 1 {m}
  0, 9.144, 3.9624,                       !- X,Y,Z Vertex 2 {m}
  9.144, 9.144, 3.9624,                   !- X,Y,Z Vertex 3 {m}
  9.144, 9.144, 0;                        !- X,Y,Z Vertex 4 {m}

OS:SubSurface,
  {02083117-d112-496e-b86e-55b62ca52e80}, !- Handle
  Sub Surface 4,                          !- Name
  FixedWindow,                            !- Sub Surface Type
  ,                                       !- Construction Name
  {113b07d7-b51e-4d4a-a2a7-81da73cf9c08}, !- Surface Name
  ,                                       !- Outside Boundary Condition Object
  ,                                       !- View Factor to Ground
  ,                                       !- Shading Control Name
  ,                                       !- Frame and Divider Name
  ,                                       !- Multiplier
  ,                                       !- Number of Vertices
  7.534275, 9.144, 0.9144,                !- X,Y,Z Vertex 1 {m}
  6.619875, 9.144, 0.9144,                !- X,Y,Z Vertex 2 {m}
  6.619875, 9.144, 2.1336,                !- X,Y,Z Vertex 3 {m}
  7.534275, 9.144, 2.1336;                !- X,Y,Z Vertex 4 {m}

OS:SubSurface,
  {566792cc-9629-4a3f-917e-147bdf245639}, !- Handle
  Sub Surface 5,                          !- Name
  FixedWindow,                            !- Sub Surface Type
  ,                                       !- Construction Name
  {113b07d7-b51e-4d4a-a2a7-81da73cf9c08}, !- Surface Name
  ,                                       !- Outside Boundary Condition Object
  ,                                       !- View Factor to Ground
  ,                                       !- Shading Control Name
  ,                                       !- Frame and Divider Name
  ,                                       !- Multiplier
  ,                                       !- Number of Vertices
  5.04825, 9.144, 0.9144,                 !- X,Y,Z Vertex 1 {m}
  4.13385, 9.144, 0.9144,                 !- X,Y,Z Vertex 2 {m}
  4.13385, 9.144, 2.1336,                 !- X,Y,Z Vertex 3 {m}
  5.04825, 9.144, 2.1336;                 !- X,Y,Z Vertex 4 {m}

OS:SubSurface,
  {ddaa883e-9ab3-4298-b881-8c1b7455788a}, !- Handle
  Sub Surface 6,                          !- Name
  FixedWindow,                            !- Sub Surface Type
  ,                                       !- Construction Name
  {113b07d7-b51e-4d4a-a2a7-81da73cf9c08}, !- Surface Name
  ,                                       !- Outside Boundary Condition Object
  ,                                       !- View Factor to Ground
  ,                                       !- Shading Control Name
  ,                                       !- Frame and Divider Name
  ,                                       !- Multiplier
  ,                                       !- Number of Vertices
  2.562225, 9.144, 0.9144,                !- X,Y,Z Vertex 1 {m}
  1.647825, 9.144, 0.9144,                !- X,Y,Z Vertex 2 {m}
  1.647825, 9.144, 2.1336,                !- X,Y,Z Vertex 3 {m}
  2.562225, 9.144, 2.1336;                !- X,Y,Z Vertex 4 {m}

OS:Surface,
  {83a1cad4-9493-44c4-9968-ef9f379c2199}, !- Handle
  Surface 5,                              !- Name
  Wall,                                   !- Surface Type
  ,                                       !- Construction Name
  {ffaa121d-81d3-4bf6-97a6-5e02fa800d8f}, !- Space Name
  Outdoors,                               !- Outside Boundary Condition
  ,                                       !- Outside Boundary Condition Object
  SunExposed,                             !- Sun Exposure
  WindExposed,                            !- Wind Exposure
  ,                                       !- View Factor to Ground
  ,                                       !- Number of Vertices
  9.144, 9.144, 0,                        !- X,Y,Z Vertex 1 {m}
  9.144, 9.144, 3.9624,                   !- X,Y,Z Vertex 2 {m}
  9.144, 0, 3.9624,                       !- X,Y,Z Vertex 3 {m}
  9.144, 0, 0;                            !- X,Y,Z Vertex 4 {m}

OS:SubSurface,
  {82d63ede-5ce5-4cc4-abff-d6d96daf3ef9}, !- Handle
  Sub Surface 7,                          !- Name
  FixedWindow,                            !- Sub Surface Type
  ,                                       !- Construction Name
  {83a1cad4-9493-44c4-9968-ef9f379c2199}, !- Surface Name
  ,                                       !- Outside Boundary Condition Object
  ,                                       !- View Factor to Ground
  ,                                       !- Shading Control Name
  ,                                       !- Frame and Divider Name
  ,                                       !- Multiplier
  ,                                       !- Number of Vertices
  9.144, 1.6319501016, 0.9144,            !- X,Y,Z Vertex 1 {m}
  9.144, 2.5463501016, 0.9144,            !- X,Y,Z Vertex 2 {m}
  9.144, 2.5463501016, 2.1336,            !- X,Y,Z Vertex 3 {m}
  9.144, 1.6319501016, 2.1336;            !- X,Y,Z Vertex 4 {m}

OS:SubSurface,
  {df059215-d90c-4274-a7e2-56c454317734}, !- Handle
  Sub Surface 8,                          !- Name
  FixedWindow,                            !- Sub Surface Type
  ,                                       !- Construction Name
  {83a1cad4-9493-44c4-9968-ef9f379c2199}, !- Surface Name
  ,                                       !- Outside Boundary Condition Object
  ,                                       !- View Factor to Ground
  ,                                       !- Shading Control Name
  ,                                       !- Frame and Divider Name
  ,                                       !- Multiplier
  ,                                       !- Number of Vertices
  9.144, 4.1148, 0.9144,                  !- X,Y,Z Vertex 1 {m}
  9.144, 5.0292, 0.9144,                  !- X,Y,Z Vertex 2 {m}
  9.144, 5.0292, 2.1336,                  !- X,Y,Z Vertex 3 {m}
  9.144, 4.1148, 2.1336;                  !- X,Y,Z Vertex 4 {m}

OS:SubSurface,
  {66b7ff14-3abc-45f1-a4d7-ceaade1a0f7f}, !- Handle
  Sub Surface 9,                          !- Name
  FixedWindow,                            !- Sub Surface Type
  ,                                       !- Construction Name
  {83a1cad4-9493-44c4-9968-ef9f379c2199}, !- Surface Name
  ,                                       !- Outside Boundary Condition Object
  ,                                       !- View Factor to Ground
  ,                                       !- Shading Control Name
  ,                                       !- Frame and Divider Name
  ,                                       !- Multiplier
  ,                                       !- Number of Vertices
  9.144, 6.61035, 0.9144,                 !- X,Y,Z Vertex 1 {m}
  9.144, 7.52475, 0.9144,                 !- X,Y,Z Vertex 2 {m}
  9.144, 7.52475, 2.1336,                 !- X,Y,Z Vertex 3 {m}
  9.144, 6.61035, 2.1336;                 !- X,Y,Z Vertex 4 {m}

OS:Surface,
  {1751c6b7-69dc-4fa5-8ecc-a5756ed9fe35}, !- Handle
  Surface 6,                              !- Name
  Wall,                                   !- Surface Type
  ,                                       !- Construction Name
  {ffaa121d-81d3-4bf6-97a6-5e02fa800d8f}, !- Space Name
  Outdoors,                               !- Outside Boundary Condition
  ,                                       !- Outside Boundary Condition Object
  SunExposed,                             !- Sun Exposure
  WindExposed,                            !- Wind Exposure
  ,                                       !- View Factor to Ground
  ,                                       !- Number of Vertices
  9.144, 0, 0,                            !- X,Y,Z Vertex 1 {m}
  9.144, 0, 3.9624,                       !- X,Y,Z Vertex 2 {m}
  0, 0, 3.9624,                           !- X,Y,Z Vertex 3 {m}
  0, 0, 0;                                !- X,Y,Z Vertex 4 {m}

OS:SubSurface,
  {895a41e0-0fd0-48ca-97f0-8e7fafbb52ff}, !- Handle
  Sub Surface 10,                         !- Name
  FixedWindow,                            !- Sub Surface Type
  ,                                       !- Construction Name
  {1751c6b7-69dc-4fa5-8ecc-a5756ed9fe35}, !- Surface Name
  ,                                       !- Outside Boundary Condition Object
  ,                                       !- View Factor to Ground
  ,                                       !- Shading Control Name
  ,                                       !- Frame and Divider Name
  ,                                       !- Multiplier
  ,                                       !- Number of Vertices
  1.666875, 0, 0.9144,                    !- X,Y,Z Vertex 1 {m}
  2.581275, 0, 0.9144,                    !- X,Y,Z Vertex 2 {m}
  2.581275, 0, 2.1336,                    !- X,Y,Z Vertex 3 {m}
  1.666875, 0, 2.1336;                    !- X,Y,Z Vertex 4 {m}

OS:ShadingSurface,
  {4b329244-13e2-43c4-bce7-bed9a018506a}, !- Handle
  Shading Surface 1,                      !- Name
  ,                                       !- Construction Name
  {8e6017a9-8823-4325-9b4a-f2df0b241076}, !- Shading Surface Group Name
  ,                                       !- Transmittance Schedule Name
  ,                                       !- Number of Vertices
  1.666875, 0, 1.49861016,                !- X,Y,Z Vertex 1 {m}
  1.666875, -0.4572, 1.49861016,          !- X,Y,Z Vertex 2 {m}
  2.581275, -0.4572, 1.49861016,          !- X,Y,Z Vertex 3 {m}
  2.581275, 0, 1.49861016;                !- X,Y,Z Vertex 4 {m}

OS:SubSurface,
  {32137f7e-cc88-4c66-9a28-846cde59cc3f}, !- Handle
  Sub Surface 11,                         !- Name
  FixedWindow,                            !- Sub Surface Type
  ,                                       !- Construction Name
  {1751c6b7-69dc-4fa5-8ecc-a5756ed9fe35}, !- Surface Name
  ,                                       !- Outside Boundary Condition Object
  ,                                       !- View Factor to Ground
  ,                                       !- Shading Control Name
  ,                                       !- Frame and Divider Name
  ,                                       !- Multiplier
  ,                                       !- Number of Vertices
  4.1529, 0, 0.9144,                      !- X,Y,Z Vertex 1 {m}
  5.0673, 0, 0.9144,                      !- X,Y,Z Vertex 2 {m}
  5.0673, 0, 2.1336,                      !- X,Y,Z Vertex 3 {m}
  4.1529, 0, 2.1336;                      !- X,Y,Z Vertex 4 {m}

OS:SubSurface,
  {f0396559-0e05-4cd6-b41e-284a77777dcb}, !- Handle
  Sub Surface 12,                         !- Name
  FixedWindow,                            !- Sub Surface Type
  ,                                       !- Construction Name
  {1751c6b7-69dc-4fa5-8ecc-a5756ed9fe35}, !- Surface Name
  ,                                       !- Outside Boundary Condition Object
  ,                                       !- View Factor to Ground
  ,                                       !- Shading Control Name
  ,                                       !- Frame and Divider Name
  ,                                       !- Multiplier
  ,                                       !- Number of Vertices
  6.619875, 0, 0.9144,                    !- X,Y,Z Vertex 1 {m}
  7.534275, 0, 0.9144,                    !- X,Y,Z Vertex 2 {m}
  7.534275, 0, 2.1336,                    !- X,Y,Z Vertex 3 {m}
  6.619875, 0, 2.1336;                    !- X,Y,Z Vertex 4 {m}

OS:ThermalZone,
  {2f6fa7c7-b8e6-487b-a11b-8c8c7edd643d}, !- Handle
  sp-1-Zone,                              !- Name
  ,                                       !- Multiplier
  ,                                       !- Ceiling Height {m}
  ,                                       !- Volume {m3}
  ,                                       !- Floor Area {m2}
  ,                                       !- Zone Inside Convection Algorithm
  ,                                       !- Zone Outside Convection Algorithm
  ,                                       !- Zone Conditioning Equipment List Name
  {8914ec30-bbad-4ef7-ac4d-93b2d9833f84}, !- Zone Air Inlet Port List
  {1c80727b-9b63-499c-af27-b3d4b6f586f5}, !- Zone Air Exhaust Port List
  {d8948e64-9524-4fb1-affb-237b0470ceb9}, !- Zone Air Node Name
  ,                                       !- Zone Return Air Node Name
  ,                                       !- Primary Daylighting Control Name
  ,                                       !- Fraction of Zone Controlled by Primary Daylighting Control
  ,                                       !- Secondary Daylighting Control Name
  ,                                       !- Fraction of Zone Controlled by Secondary Daylighting Control
  ,                                       !- Illuminance Map Name
  ,                                       !- Group Rendering Name
  ,                                       !- Thermostat Name
  No;                                     !- Use Ideal Air Loads

OS:Node,
  {bd5af0bc-e549-4897-9b14-1c4fd12d4059}, !- Handle
  Node 1,                                 !- Name
  {d8948e64-9524-4fb1-affb-237b0470ceb9}, !- Inlet Port
  ;                                       !- Outlet Port

OS:Connection,
  {d8948e64-9524-4fb1-affb-237b0470ceb9}, !- Handle
  {fbfc411d-34e7-4513-be39-70eb6d906bd6}, !- Name
  {2f6fa7c7-b8e6-487b-a11b-8c8c7edd643d}, !- Source Object
  11,                                     !- Outlet Port
  {bd5af0bc-e549-4897-9b14-1c4fd12d4059}, !- Target Object
  2;                                      !- Inlet Port

OS:PortList,
  {8914ec30-bbad-4ef7-ac4d-93b2d9833f84}, !- Handle
  Port List 1,                            !- Name
  {2f6fa7c7-b8e6-487b-a11b-8c8c7edd643d}; !- HVAC Component

OS:PortList,
  {1c80727b-9b63-499c-af27-b3d4b6f586f5}, !- Handle
  Port List 2,                            !- Name
  {2f6fa7c7-b8e6-487b-a11b-8c8c7edd643d}; !- HVAC Component

OS:Sizing:Zone,
  {af95772f-97a0-4757-a731-5be70630d242}, !- Handle
  {2f6fa7c7-b8e6-487b-a11b-8c8c7edd643d}, !- Zone or ZoneList Name
  SupplyAirTemperature,                   !- Zone Cooling Design Supply Air Temperature Input Method
  14,                                     !- Zone Cooling Design Supply Air Temperature {C}
  11.11,                                  !- Zone Cooling Design Supply Air Temperature Difference {deltaC}
  SupplyAirTemperature,                   !- Zone Heating Design Supply Air Temperature Input Method
  40,                                     !- Zone Heating Design Supply Air Temperature {C}
  11.11,                                  !- Zone Heating Design Supply Air Temperature Difference {deltaC}
  0.0085,                                 !- Zone Cooling Design Supply Air Humidity Ratio {kg-H2O/kg-air}
  0.008,                                  !- Zone Heating Design Supply Air Humidity Ratio {kg-H2O/kg-air}
  ,                                       !- Zone Heating Sizing Factor
  ,                                       !- Zone Cooling Sizing Factor
  DesignDay,                              !- Cooling Design Air Flow Method
  ,                                       !- Cooling Design Air Flow Rate {m3/s}
  ,                                       !- Cooling Minimum Air Flow per Zone Floor Area {m3/s-m2}
  ,                                       !- Cooling Minimum Air Flow {m3/s}
  ,                                       !- Cooling Minimum Air Flow Fraction
  DesignDay,                              !- Heating Design Air Flow Method
  ,                                       !- Heating Design Air Flow Rate {m3/s}
  ,                                       !- Heating Maximum Air Flow per Zone Floor Area {m3/s-m2}
  ,                                       !- Heating Maximum Air Flow {m3/s}
  ,                                       !- Heating Maximum Air Flow Fraction
  ,                                       !- Design Zone Air Distribution Effectiveness in Cooling Mode
  ,                                       !- Design Zone Air Distribution Effectiveness in Heating Mode
  No,                                     !- Account for Dedicated Outdoor Air System
  NeutralSupplyAir,                       !- Dedicated Outdoor Air System Control Strategy
  autosize,                               !- Dedicated Outdoor Air Low Setpoint Temperature for Design {C}
  autosize;                               !- Dedicated Outdoor Air High Setpoint Temperature for Design {C}

OS:ZoneHVAC:EquipmentList,
  {0cfb10c1-2c68-478f-97dc-30235f5c528c}, !- Handle
  Zone HVAC Equipment List 1,             !- Name
  {2f6fa7c7-b8e6-487b-a11b-8c8c7edd643d}; !- Thermal Zone

