
OS:Version,
  {75a77b96-66aa-4da6-9b4c-f2939d33949f}, !- Handle
  1.12.2;                                 !- Version Identifier

OS:SpaceType,
  {21e83938-bc1c-43d7-ad7e-80280dc5b332}, !- Handle
  189.1-2009 - Office - Lobby - CZ4-8,    !- Name
  ,                                       !- Default Construction Set Name
  {121a92c4-cbeb-4668-9fa9-95e7693705be}, !- Default Schedule Set Name
  {fc72c2e6-7613-442b-bedc-4e88f4ea9064}, !- Group Rendering Name
  {7f3c0e4c-fba7-4c2f-bef8-abf80ffb9dff}, !- Design Specification Outdoor Air Object Name
  Office,                                 !- Standards Building Type
  Lobby;                                  !- Standards Space Type

OS:DefaultScheduleSet,
  {121a92c4-cbeb-4668-9fa9-95e7693705be}, !- Handle
  189.1-2009 - Office - Lobby - CZ4-8 Schedule Set, !- Name
  ,                                       !- Hours of Operation Schedule Name
  {3fcd22d2-9c8e-4d4f-91e3-1a4834d800ce}, !- Number of People Schedule Name
  {74593558-ded0-45db-9bda-5fb7a8dceed1}, !- People Activity Level Schedule Name
  {e35e47cb-a473-42cb-9458-159bdac2482e}, !- Lighting Schedule Name
  {ae997c3b-5196-40d8-ad2c-ad8160a1cf12}, !- Electric Equipment Schedule Name
  ,                                       !- Gas Equipment Schedule Name
  ,                                       !- Hot Water Equipment Schedule Name
  {6a017310-92e5-4fe0-b44c-95a7a3a63f4b}, !- Infiltration Schedule Name
  ,                                       !- Steam Equipment Schedule Name
  ;                                       !- Other Equipment Schedule Name

OS:Rendering:Color,
  {fc72c2e6-7613-442b-bedc-4e88f4ea9064}, !- Handle
  Rendering Color 23,                     !- Name
  230,                                    !- Rendering Red Value
  157,                                    !- Rendering Green Value
  120;                                    !- Rendering Blue Value

OS:DesignSpecification:OutdoorAir,
  {7f3c0e4c-fba7-4c2f-bef8-abf80ffb9dff}, !- Handle
  189.1-2009 - Office - Lobby - CZ4-8 Ventilation, !- Name
  Sum,                                    !- Outdoor Air Method
  0.007079211648,                         !- Outdoor Air Flow per Person {m3/s-person}
  ,                                       !- Outdoor Air Flow per Floor Area {m3/s-m2}
  ,                                       !- Outdoor Air Flow Rate {m3/s}
  ,                                       !- Outdoor Air Flow Air Changes per Hour {1/hr}
  ;                                       !- Outdoor Air Flow Rate Fraction Schedule Name

OS:Schedule:Ruleset,
  {3fcd22d2-9c8e-4d4f-91e3-1a4834d800ce}, ! Handle
  Office Misc Occ,                        ! Name
  {dac51c59-0c5c-42b4-beaf-9e7dd2e925f8}, ! Schedule Type Limits Name
  {47f788c0-b610-42f9-b5ff-28a768a6a247}, ! Default Day Schedule Name
  {656c9fc2-61d3-4135-82c9-aba6a377fbd1}, ! Summer Design Day Schedule Name
  {96a0bcfe-d77c-4eb0-a588-967932a30bd8}; ! Winter Design Day Schedule Name

OS:Schedule:Day,
  {47f788c0-b610-42f9-b5ff-28a768a6a247}, ! Handle
  Office Bldg Occ Default Schedule 1,     ! Name
  {dac51c59-0c5c-42b4-beaf-9e7dd2e925f8}, ! Schedule Type Limits Name
  ,                                       ! Interpolate to Timestep
  6,                                      !- Hour 1
  0,                                      !- Minute 1
  0,                                      !- Value Until Time 1
  7,                                      !- Hour 2
  0,                                      !- Minute 2
  0.100000001490116,                      !- Value Until Time 2
  8,                                      !- Hour 3
  0,                                      !- Minute 3
  0.200000002980232,                      !- Value Until Time 3
  20,                                     !- Hour 4
  0,                                      !- Minute 4
  0.400000005960464,                      !- Value Until Time 4
  22,                                     !- Hour 5
  0,                                      !- Minute 5
  0.100000001490116,                      !- Value Until Time 5
  24,                                     !- Hour 6
  0,                                      !- Minute 6
  0.0500000007450581;                     !- Value Until Time 6

OS:Schedule:Day,
  {656c9fc2-61d3-4135-82c9-aba6a377fbd1}, ! Handle
  Office Bldg Occ Summer Design Day 1,    ! Name
  {dac51c59-0c5c-42b4-beaf-9e7dd2e925f8}, ! Schedule Type Limits Name
  ,                                       ! Interpolate to Timestep
  6,                                      ! Hour 1
  0,                                      ! Minute 1
  0,                                      ! Value Until Time 1
  22,                                     ! Hour 2
  0,                                      ! Minute 2
  1,                                      ! Value Until Time 2
  24,                                     ! Hour 3
  0,                                      ! Minute 3
  0.050000000000000003;                   ! Value Until Time 3

OS:Schedule:Day,
  {96a0bcfe-d77c-4eb0-a588-967932a30bd8}, ! Handle
  Office Bldg Occ Winter Design Day 1,    ! Name
  {dac51c59-0c5c-42b4-beaf-9e7dd2e925f8}, ! Schedule Type Limits Name
  ,                                       ! Interpolate to Timestep
  24,                                     ! Hour 1
  0,                                      ! Minute 1
  0;                                      ! Value Until Time 1

OS:Schedule:Rule,
  {9fd60fbb-5441-4c1b-9b99-6f28097cbec6}, ! Handle
  Office Misc Occ Rule 1,                 ! Name
  {3fcd22d2-9c8e-4d4f-91e3-1a4834d800ce}, ! Schedule Ruleset Name
  0,                                      ! Rule Order
  {d6ceeaa4-2ed6-4058-a92d-51e7b99d2f60}, ! Day Schedule Name
  Yes,                                    ! Apply Sunday
  No,                                     ! Apply Monday
  No,                                     ! Apply Tuesday
  No,                                     ! Apply Wednesday
  No,                                     ! Apply Thursday
  No,                                     ! Apply Friday
  No,                                     ! Apply Saturday
  ,                                       ! Apply Holiday
  DateRange,                              ! Date Specification Type
  1,                                      ! Start Month
  1,                                      ! Start Day
  12,                                     ! End Month
  31;                                     ! End Day

OS:Schedule:Rule,
  {b20a5bca-2be2-43c5-9ae1-ab165696dc10}, ! Handle
  Office Misc Occ Rule 2,                 ! Name
  {3fcd22d2-9c8e-4d4f-91e3-1a4834d800ce}, ! Schedule Ruleset Name
  1,                                      ! Rule Order
  {68ba8458-dae6-4321-a8bd-cd477a5fed69}, ! Day Schedule Name
  No,                                     ! Apply Sunday
  No,                                     ! Apply Monday
  No,                                     ! Apply Tuesday
  No,                                     ! Apply Wednesday
  No,                                     ! Apply Thursday
  No,                                     ! Apply Friday
  Yes,                                    ! Apply Saturday
  ,                                       ! Apply Holiday
  DateRange,                              ! Date Specification Type
  1,                                      ! Start Month
  1,                                      ! Start Day
  12,                                     ! End Month
  31;                                     ! End Day

OS:Schedule:Day,
  {d6ceeaa4-2ed6-4058-a92d-51e7b99d2f60}, ! Handle
  Office Bldg Occ Rule 1 Day Schedule 1,  ! Name
  {dac51c59-0c5c-42b4-beaf-9e7dd2e925f8}, ! Schedule Type Limits Name
  ,                                       ! Interpolate to Timestep
  24,                                     ! Hour 1
  0,                                      ! Minute 1
  0;                                      ! Value Until Time 1

OS:Schedule:Day,
  {68ba8458-dae6-4321-a8bd-cd477a5fed69}, ! Handle
  Office Bldg Occ Rule 2 Day Schedule 1,  ! Name
  {dac51c59-0c5c-42b4-beaf-9e7dd2e925f8}, ! Schedule Type Limits Name
  ,                                       ! Interpolate to Timestep
  6,                                      !- Hour 1
  0,                                      !- Minute 1
  0,                                      !- Value Until Time 1
  8,                                      !- Hour 2
  0,                                      !- Minute 2
  0.100000001490116,                      !- Value Until Time 2
  14,                                     !- Hour 3
  0,                                      !- Minute 3
  0.25,                                   !- Value Until Time 3
  17,                                     !- Hour 4
  0,                                      !- Minute 4
  0.100000001490116,                      !- Value Until Time 4
  24,                                     !- Hour 5
  0,                                      !- Minute 5
  0;                                      !- Value Until Time 5

OS:Schedule:Ruleset,
  {74593558-ded0-45db-9bda-5fb7a8dceed1}, ! Handle
  Office Activity,                        ! Name
  {37dea812-8cf9-4453-81e7-518d069c63bc}, ! Schedule Type Limits Name
  {f971d592-ca33-4a8b-87b4-1528604d7203}, ! Default Day Schedule Name
  {163c89ea-8deb-4b6e-88e1-319016350e68}, ! Summer Design Day Schedule Name
  {a8c2ae72-0fed-4285-9039-ac4c3bd1ac4f}; ! Winter Design Day Schedule Name

OS:Schedule:Day,
  {f971d592-ca33-4a8b-87b4-1528604d7203}, ! Handle
  Office Activity Default Schedule,       ! Name
  {37dea812-8cf9-4453-81e7-518d069c63bc}, ! Schedule Type Limits Name
  ,                                       ! Interpolate to Timestep
  24,                                     !- Hour 1
  0,                                      !- Minute 1
  132;                                    !- Value Until Time 1

OS:Schedule:Day,
  {163c89ea-8deb-4b6e-88e1-319016350e68}, ! Handle
  Office Activity Summer Design Day,      ! Name
  {37dea812-8cf9-4453-81e7-518d069c63bc}, ! Schedule Type Limits Name
  ,                                       ! Interpolate to Timestep
  24,                                     !- Hour 1
  0,                                      !- Minute 1
  132;                                    !- Value Until Time 1

OS:Schedule:Day,
  {a8c2ae72-0fed-4285-9039-ac4c3bd1ac4f}, ! Handle
  Office Activity Winter Design Day,      ! Name
  {37dea812-8cf9-4453-81e7-518d069c63bc}, ! Schedule Type Limits Name
  ,                                       ! Interpolate to Timestep
  24,                                     !- Hour 1
  0,                                      !- Minute 1
  132;                                    !- Value Until Time 1

OS:Schedule:Ruleset,
  {e35e47cb-a473-42cb-9458-159bdac2482e}, ! Handle
  Office Bldg Light,                      ! Name
  {dac51c59-0c5c-42b4-beaf-9e7dd2e925f8}, ! Schedule Type Limits Name
  {7d5ac9e4-8193-4c56-8920-ec856e96be92}, ! Default Day Schedule Name
  {6893628d-8a67-454e-912f-003f032b05eb}, ! Summer Design Day Schedule Name
  {4a656bd2-447e-4131-9b24-1d8fd41b492d}; ! Winter Design Day Schedule Name

OS:Schedule:Day,
  {7d5ac9e4-8193-4c56-8920-ec856e96be92}, ! Handle
  Office Bldg Light Default Schedule,     ! Name
  {dac51c59-0c5c-42b4-beaf-9e7dd2e925f8}, ! Schedule Type Limits Name
  ,                                       ! Interpolate to Timestep
  5,                                      !- Hour 1
  0,                                      !- Minute 1
  0.05,                                   !- Value Until Time 1
  7,                                      !- Hour 2
  0,                                      !- Minute 2
  0.1,                                    !- Value Until Time 2
  8,                                      !- Hour 3
  0,                                      !- Minute 3
  0.3,                                    !- Value Until Time 3
  17,                                     !- Hour 4
  0,                                      !- Minute 4
  0.9,                                    !- Value Until Time 4
  18,                                     !- Hour 5
  0,                                      !- Minute 5
  0.7,                                    !- Value Until Time 5
  20,                                     !- Hour 6
  0,                                      !- Minute 6
  0.5,                                    !- Value Until Time 6
  22,                                     !- Hour 7
  0,                                      !- Minute 7
  0.3,                                    !- Value Until Time 7
  23,                                     !- Hour 8
  0,                                      !- Minute 8
  0.1,                                    !- Value Until Time 8
  24,                                     !- Hour 9
  0,                                      !- Minute 9
  0.05;                                   !- Value Until Time 9

OS:Schedule:Day,
  {6893628d-8a67-454e-912f-003f032b05eb}, ! Handle
  Office Bldg Light Summer Design Day,    ! Name
  {dac51c59-0c5c-42b4-beaf-9e7dd2e925f8}, ! Schedule Type Limits Name
  ,                                       ! Interpolate to Timestep
  24,                                     ! Hour 1
  0,                                      ! Minute 1
  1;                                      ! Value Until Time 1

OS:Schedule:Day,
  {4a656bd2-447e-4131-9b24-1d8fd41b492d}, ! Handle
  Office Bldg Light Winter Design Day,    ! Name
  {dac51c59-0c5c-42b4-beaf-9e7dd2e925f8}, ! Schedule Type Limits Name
  ,                                       ! Interpolate to Timestep
  24,                                     ! Hour 1
  0,                                      ! Minute 1
  0;                                      ! Value Until Time 1

OS:Schedule:Rule,
  {23e37a0e-1c17-436e-bb7d-f34c97d353e0}, ! Handle
  Office Bldg Light Rule 1,               ! Name
  {e35e47cb-a473-42cb-9458-159bdac2482e}, ! Schedule Ruleset Name
  0,                                      ! Rule Order
  {e63b6b98-8047-4bb4-834d-b5324a049ca9}, ! Day Schedule Name
  Yes,                                    ! Apply Sunday
  No,                                     ! Apply Monday
  No,                                     ! Apply Tuesday
  No,                                     ! Apply Wednesday
  No,                                     ! Apply Thursday
  No,                                     ! Apply Friday
  No,                                     ! Apply Saturday
  ,                                       ! Apply Holiday
  DateRange,                              ! Date Specification Type
  1,                                      ! Start Month
  1,                                      ! Start Day
  12,                                     ! End Month
  31;                                     ! End Day

OS:Schedule:Rule,
  {dde3a852-4d94-402e-b8a2-a174b1ab23e9}, ! Handle
  Office Bldg Light Rule 2,               ! Name
  {e35e47cb-a473-42cb-9458-159bdac2482e}, ! Schedule Ruleset Name
  1,                                      ! Rule Order
  {407ecb30-cfa1-457c-af27-aa614a1fd8df}, ! Day Schedule Name
  No,                                     ! Apply Sunday
  No,                                     ! Apply Monday
  No,                                     ! Apply Tuesday
  No,                                     ! Apply Wednesday
  No,                                     ! Apply Thursday
  No,                                     ! Apply Friday
  Yes,                                    ! Apply Saturday
  ,                                       ! Apply Holiday
  DateRange,                              ! Date Specification Type
  1,                                      ! Start Month
  1,                                      ! Start Day
  12,                                     ! End Month
  31;                                     ! End Day

OS:Schedule:Day,
  {e63b6b98-8047-4bb4-834d-b5324a049ca9}, ! Handle
  Office Bldg Light Rule 1 Day Schedule,  ! Name
  {dac51c59-0c5c-42b4-beaf-9e7dd2e925f8}, ! Schedule Type Limits Name
  ,                                       ! Interpolate to Timestep
  24,                                     ! Hour 1
  0,                                      ! Minute 1
  0.050000000000000003;                   ! Value Until Time 1

OS:Schedule:Day,
  {407ecb30-cfa1-457c-af27-aa614a1fd8df}, ! Handle
  Office Bldg Light Rule 2 Day Schedule,  ! Name
  {dac51c59-0c5c-42b4-beaf-9e7dd2e925f8}, ! Schedule Type Limits Name
  ,                                       ! Interpolate to Timestep
  6,                                      ! Hour 1
  0,                                      ! Minute 1
  0.050000000000000003,                   ! Value Until Time 1
  8,                                      ! Hour 2
  0,                                      ! Minute 2
  0.10000000000000001,                    ! Value Until Time 2
  14,                                     ! Hour 3
  0,                                      ! Minute 3
  0.5,                                    ! Value Until Time 3
  17,                                     ! Hour 4
  0,                                      ! Minute 4
  0.14999999999999999,                    ! Value Until Time 4
  24,                                     ! Hour 5
  0,                                      ! Minute 5
  0.050000000000000003;                   ! Value Until Time 5

OS:Schedule:Ruleset,
  {ae997c3b-5196-40d8-ad2c-ad8160a1cf12}, ! Handle
  Office Bldg Equip,                      ! Name
  {dac51c59-0c5c-42b4-beaf-9e7dd2e925f8}, ! Schedule Type Limits Name
  {5e9f6b2a-d78d-47fd-9b29-5daa6aabe9d5}, ! Default Day Schedule Name
  {b59138dd-d5a4-43ba-a7e5-855318b684c7}, ! Summer Design Day Schedule Name
  {547ee253-1a08-402d-bead-993a210e8532}; ! Winter Design Day Schedule Name

OS:Schedule:Day,
  {5e9f6b2a-d78d-47fd-9b29-5daa6aabe9d5}, ! Handle
  Office Bldg Equip Default Schedule,     ! Name
  {dac51c59-0c5c-42b4-beaf-9e7dd2e925f8}, ! Schedule Type Limits Name
  ,                                       ! Interpolate to Timestep
  8,                                      !- Hour 1
  0,                                      !- Minute 1
  0.4,                                    !- Value Until Time 1
  12,                                     !- Hour 2
  0,                                      !- Minute 2
  0.9,                                    !- Value Until Time 2
  13,                                     !- Hour 3
  0,                                      !- Minute 3
  0.8,                                    !- Value Until Time 3
  17,                                     !- Hour 4
  0,                                      !- Minute 4
  0.9,                                    !- Value Until Time 4
  18,                                     !- Hour 5
  0,                                      !- Minute 5
  0.8,                                    !- Value Until Time 5
  20,                                     !- Hour 6
  0,                                      !- Minute 6
  0.6,                                    !- Value Until Time 6
  22,                                     !- Hour 7
  0,                                      !- Minute 7
  0.5,                                    !- Value Until Time 7
  24,                                     !- Hour 8
  0,                                      !- Minute 8
  0.4;                                    !- Value Until Time 8

OS:Schedule:Day,
  {b59138dd-d5a4-43ba-a7e5-855318b684c7}, ! Handle
  Office Bldg Equip Summer Design Day,    ! Name
  {dac51c59-0c5c-42b4-beaf-9e7dd2e925f8}, ! Schedule Type Limits Name
  ,                                       ! Interpolate to Timestep
  24,                                     ! Hour 1
  0,                                      ! Minute 1
  1;                                      ! Value Until Time 1

OS:Schedule:Day,
  {547ee253-1a08-402d-bead-993a210e8532}, ! Handle
  Office Bldg Equip Winter Design Day,    ! Name
  {dac51c59-0c5c-42b4-beaf-9e7dd2e925f8}, ! Schedule Type Limits Name
  ,                                       ! Interpolate to Timestep
  24,                                     ! Hour 1
  0,                                      ! Minute 1
  0;                                      ! Value Until Time 1

OS:Schedule:Rule,
  {02e625e5-ea8c-41b7-9fa5-52a1e4106291}, ! Handle
  Office Bldg Equip Rule 1,               ! Name
  {ae997c3b-5196-40d8-ad2c-ad8160a1cf12}, ! Schedule Ruleset Name
  0,                                      ! Rule Order
  {b9db2ed2-4360-4fe4-a1fc-8aeeb101d535}, ! Day Schedule Name
  Yes,                                    ! Apply Sunday
  No,                                     ! Apply Monday
  No,                                     ! Apply Tuesday
  No,                                     ! Apply Wednesday
  No,                                     ! Apply Thursday
  No,                                     ! Apply Friday
  No,                                     ! Apply Saturday
  ,                                       ! Apply Holiday
  DateRange,                              ! Date Specification Type
  1,                                      ! Start Month
  1,                                      ! Start Day
  12,                                     ! End Month
  31;                                     ! End Day

OS:Schedule:Rule,
  {f0db1e1c-d87f-40a7-9414-56963e274374}, ! Handle
  Office Bldg Equip Rule 2,               ! Name
  {ae997c3b-5196-40d8-ad2c-ad8160a1cf12}, ! Schedule Ruleset Name
  1,                                      ! Rule Order
  {cf4e4531-4481-4173-91d6-1681fed802cb}, ! Day Schedule Name
  No,                                     ! Apply Sunday
  No,                                     ! Apply Monday
  No,                                     ! Apply Tuesday
  No,                                     ! Apply Wednesday
  No,                                     ! Apply Thursday
  No,                                     ! Apply Friday
  Yes,                                    ! Apply Saturday
  ,                                       ! Apply Holiday
  DateRange,                              ! Date Specification Type
  1,                                      ! Start Month
  1,                                      ! Start Day
  12,                                     ! End Month
  31;                                     ! End Day

OS:Schedule:Day,
  {b9db2ed2-4360-4fe4-a1fc-8aeeb101d535}, ! Handle
  Office Bldg Equip Rule 1 Day Schedule,  ! Name
  {dac51c59-0c5c-42b4-beaf-9e7dd2e925f8}, ! Schedule Type Limits Name
  ,                                       ! Interpolate to Timestep
  24,                                     ! Hour 1
  0,                                      ! Minute 1
  0.29999999999999999;                    ! Value Until Time 1

OS:Schedule:Day,
  {cf4e4531-4481-4173-91d6-1681fed802cb}, ! Handle
  Office Bldg Equip Rule 2 Day Schedule,  ! Name
  {dac51c59-0c5c-42b4-beaf-9e7dd2e925f8}, ! Schedule Type Limits Name
  ,                                       ! Interpolate to Timestep
  6,                                      ! Hour 1
  0,                                      ! Minute 1
  0.29999999999999999,                    ! Value Until Time 1
  8,                                      ! Hour 2
  0,                                      ! Minute 2
  0.40000000000000002,                    ! Value Until Time 2
  14,                                     ! Hour 3
  0,                                      ! Minute 3
  0.5,                                    ! Value Until Time 3
  17,                                     ! Hour 4
  0,                                      ! Minute 4
  0.34999999999999998,                    ! Value Until Time 4
  24,                                     ! Hour 5
  0,                                      ! Minute 5
  0.29999999999999999;                    ! Value Until Time 5

OS:Schedule:Ruleset,
  {6a017310-92e5-4fe0-b44c-95a7a3a63f4b}, ! Handle
  Office Infil Quarter On,                ! Name
  {dac51c59-0c5c-42b4-beaf-9e7dd2e925f8}, ! Schedule Type Limits Name
  {a7683024-77ff-4f46-919e-bb5c97ba2a37}, ! Default Day Schedule Name
  {18202b06-4194-4727-a008-55dc1f8bdc8e}, ! Summer Design Day Schedule Name
  {7889ff86-91be-453b-9ba8-83ce8354e2d8}; ! Winter Design Day Schedule Name

OS:Schedule:Day,
  {a7683024-77ff-4f46-919e-bb5c97ba2a37}, ! Handle
  Office Infil Quarter On Default Schedule, ! Name
  {dac51c59-0c5c-42b4-beaf-9e7dd2e925f8}, ! Schedule Type Limits Name
  ,                                       ! Interpolate to Timestep
  6,                                      !- Hour 1
  0,                                      !- Minute 1
  1,                                      !- Value Until Time 1
  22,                                     !- Hour 2
  0,                                      !- Minute 2
  0.25,                                   !- Value Until Time 2
  24,                                     !- Hour 3
  0,                                      !- Minute 3
  1;                                      !- Value Until Time 3

OS:Schedule:Day,
  {18202b06-4194-4727-a008-55dc1f8bdc8e}, ! Handle
  Office Infil Quarter On Summer Design Day, ! Name
  {dac51c59-0c5c-42b4-beaf-9e7dd2e925f8}, ! Schedule Type Limits Name
  ,                                       ! Interpolate to Timestep
  6,                                      ! Hour 1
  0,                                      ! Minute 1
  1,                                      ! Value Until Time 1
  22,                                     ! Hour 2
  0,                                      ! Minute 2
  0.25,                                   ! Value Until Time 2
  24,                                     ! Hour 3
  0,                                      ! Minute 3
  1;                                      ! Value Until Time 3

OS:Schedule:Day,
  {7889ff86-91be-453b-9ba8-83ce8354e2d8}, ! Handle
  Office Infil Quarter On Winter Design Day, ! Name
  {dac51c59-0c5c-42b4-beaf-9e7dd2e925f8}, ! Schedule Type Limits Name
  ,                                       ! Interpolate to Timestep
  6,                                      ! Hour 1
  0,                                      ! Minute 1
  1,                                      ! Value Until Time 1
  18,                                     ! Hour 2
  0,                                      ! Minute 2
  0.25,                                   ! Value Until Time 2
  24,                                     ! Hour 3
  0,                                      ! Minute 3
  1;                                      ! Value Until Time 3

OS:Schedule:Rule,
  {627a1cbd-fa9e-4fea-9408-f9b3ea0276c6}, ! Handle
  Office Infil Quarter On Rule 1,         ! Name
  {6a017310-92e5-4fe0-b44c-95a7a3a63f4b}, ! Schedule Ruleset Name
  0,                                      ! Rule Order
  {7c8a52e0-1d32-4f86-bdef-ffd8ca50cc73}, ! Day Schedule Name
  Yes,                                    ! Apply Sunday
  No,                                     ! Apply Monday
  No,                                     ! Apply Tuesday
  No,                                     ! Apply Wednesday
  No,                                     ! Apply Thursday
  No,                                     ! Apply Friday
  No,                                     ! Apply Saturday
  ,                                       ! Apply Holiday
  DateRange,                              ! Date Specification Type
  1,                                      ! Start Month
  1,                                      ! Start Day
  12,                                     ! End Month
  31;                                     ! End Day

OS:Schedule:Rule,
  {f22507e8-65fd-447f-82f4-a74d21ddfea7}, ! Handle
  Office Infil Quarter On Rule 2,         ! Name
  {6a017310-92e5-4fe0-b44c-95a7a3a63f4b}, ! Schedule Ruleset Name
  1,                                      ! Rule Order
  {afa032d3-f429-4b19-bb3a-3548f2f47b72}, ! Day Schedule Name
  No,                                     ! Apply Sunday
  No,                                     ! Apply Monday
  No,                                     ! Apply Tuesday
  No,                                     ! Apply Wednesday
  No,                                     ! Apply Thursday
  No,                                     ! Apply Friday
  Yes,                                    ! Apply Saturday
  ,                                       ! Apply Holiday
  DateRange,                              ! Date Specification Type
  1,                                      ! Start Month
  1,                                      ! Start Day
  12,                                     ! End Month
  31;                                     ! End Day

OS:Schedule:Day,
  {7c8a52e0-1d32-4f86-bdef-ffd8ca50cc73}, ! Handle
  Office Infil Quarter On Rule 1 Day Schedule, ! Name
  {dac51c59-0c5c-42b4-beaf-9e7dd2e925f8}, ! Schedule Type Limits Name
  ,                                       ! Interpolate to Timestep
  24,                                     ! Hour 1
  0,                                      ! Minute 1
  1;                                      ! Value Until Time 1

OS:Schedule:Day,
  {afa032d3-f429-4b19-bb3a-3548f2f47b72}, ! Handle
  Office Infil Quarter On Rule 2 Day Schedule, ! Name
  {dac51c59-0c5c-42b4-beaf-9e7dd2e925f8}, ! Schedule Type Limits Name
  ,                                       ! Interpolate to Timestep
  6,                                      ! Hour 1
  0,                                      ! Minute 1
  1,                                      ! Value Until Time 1
  18,                                     ! Hour 2
  0,                                      ! Minute 2
  0.25,                                   ! Value Until Time 2
  24,                                     ! Hour 3
  0,                                      ! Minute 3
  1;                                      ! Value Until Time 3

OS:ScheduleTypeLimits,
  {dac51c59-0c5c-42b4-beaf-9e7dd2e925f8}, ! Handle
  Fraction,                               ! Name