
OS:Version,
  {04639d2e-b5b0-4c2f-be29-b011014107b8}, !- Handle
  1.9.0;                                  !- Version Identifier

OS:Facility,
  {8e0609a9-0f98-4f92-aea9-d7c863401fa0}; !- Handle

OS:Building,
  {19673518-e4ea-4f12-a352-200c204f70ca}, !- Handle
  Building 1,                             !- Name
  ,                                       !- Building Sector Type
  ,                                       !- North Axis {deg}
  ,                                       !- Nominal Floor to Floor Height {m}
  ,                                       !- Space Type Name
  ,                                       !- Default Construction Set Name
  ;                                       !- Default Schedule Set Name

OS:BuildingStory,
  {02ba1f13-2f3d-4f3c-b6cf-2aae16d17deb}, !- Handle
  Level 1,                                !- Name
  ,                                       !- Nominal Z Coordinate {m}
  ,                                       !- Nominal Floor to Floor Height {m}
  ,                                       !- Default Construction Set Name
  ,                                       !- Default Schedule Set Name
  ;                                       !- Group Rendering Name

OS:BuildingStory,
  {18345948-4534-4477-acfd-45eb8fee4e01}, !- Handle
  Level 2,                                !- Name
  ,                                       !- Nominal Z Coordinate {m}
  3.9624,                                 !- Nominal Floor to Floor Height {m}
  ,                                       !- Default Construction Set Name
  ,                                       !- Default Schedule Set Name
  ;                                       !- Group Rendering Name

OS:ShadingSurfaceGroup,
  {a8dc705e-ee91-4ead-810b-4410b4d8fc8c}, !- Handle
  Shading Surface Group 1,                !- Name
  Building;                               !- Shading Surface Type

OS:Space,
  {db1a182e-2cbf-41c3-9a6c-ba9661b2a2e1}, !- Handle
  sp-1-Space,                             !- Name
  ,                                       !- Space Type Name
  ,                                       !- Default Construction Set Name
  ,                                       !- Default Schedule Set Name
  ,                                       !- Direction of Relative North {deg}
  ,                                       !- X Origin {m}
  ,                                       !- Y Origin {m}
  ,                                       !- Z Origin {m}
  {02ba1f13-2f3d-4f3c-b6cf-2aae16d17deb}, !- Building Story Name
  {c51657f6-ab0a-43d7-8598-0e390a8936e5}; !- Thermal Zone Name

OS:Surface,
  {a7dd8054-00c9-43f7-b3b6-1e4281f89b88}, !- Handle
  Surface 1,                              !- Name
  Floor,                                  !- Surface Type
  ,                                       !- Construction Name
  {db1a182e-2cbf-41c3-9a6c-ba9661b2a2e1}, !- Space Name
  Ground,                                 !- Outside Boundary Condition
  ,                                       !- Outside Boundary Condition Object
  NoSun,                                  !- Sun Exposure
  NoWind,                                 !- Wind Exposure
  ,                                       !- View Factor to Ground
  ,                                       !- Number of Vertices
  0, 0, 0,                                !- X,Y,Z Vertex 1 {m}
  0, 9.144, 0,                            !- X,Y,Z Vertex 2 {m}
  9.144, 9.144, 0,                        !- X,Y,Z Vertex 3 {m}
  9.144, 0, 0;                            !- X,Y,Z Vertex 4 {m}

OS:Surface,
  {9bfd93cd-0754-4120-b499-eeb48c1c2213}, !- Handle
  Surface 2,                              !- Name
  Wall,                                   !- Surface Type
  ,                                       !- Construction Name
  {db1a182e-2cbf-41c3-9a6c-ba9661b2a2e1}, !- Space Name
  Outdoors,                               !- Outside Boundary Condition
  ,                                       !- Outside Boundary Condition Object
  SunExposed,                             !- Sun Exposure
  WindExposed,                            !- Wind Exposure
  ,                                       !- View Factor to Ground
  ,                                       !- Number of Vertices
  0, 0, 0,                                !- X,Y,Z Vertex 1 {m}
  0, 0, 3.9624,                           !- X,Y,Z Vertex 2 {m}
  0, 9.144, 3.9624,                       !- X,Y,Z Vertex 3 {m}
  0, 9.144, 0;                            !- X,Y,Z Vertex 4 {m}

OS:SubSurface,
  {37cfc489-84d6-4ea1-b278-4c57683de7ff}, !- Handle
  Sub Surface 1,                          !- Name
  FixedWindow,                            !- Sub Surface Type
  ,                                       !- Construction Name
  {9bfd93cd-0754-4120-b499-eeb48c1c2213}, !- Surface Name
  ,                                       !- Outside Boundary Condition Object
  ,                                       !- View Factor to Ground
  ,                                       !- Shading Control Name
  ,                                       !- Frame and Divider Name
  ,                                       !- Multiplier
  ,                                       !- Number of Vertices
  0, 7.52475, 0.9144,                     !- X,Y,Z Vertex 1 {m}
  0, 6.61035, 0.9144,                     !- X,Y,Z Vertex 2 {m}
  0, 6.61035, 2.1336,                     !- X,Y,Z Vertex 3 {m}
  0, 7.52475, 2.1336;                     !- X,Y,Z Vertex 4 {m}

OS:SubSurface,
  {7bbecf85-cebe-464b-8458-3934ef377590}, !- Handle
  Sub Surface 2,                          !- Name
  FixedWindow,                            !- Sub Surface Type
  ,                                       !- Construction Name
  {9bfd93cd-0754-4120-b499-eeb48c1c2213}, !- Surface Name
  ,                                       !- Outside Boundary Condition Object
  ,                                       !- View Factor to Ground
  ,                                       !- Shading Control Name
  ,                                       !- Frame and Divider Name
  ,                                       !- Multiplier
  ,                                       !- Number of Vertices
  0, 5.0292, 0.9144,                      !- X,Y,Z Vertex 1 {m}
  0, 4.1148, 0.9144,                      !- X,Y,Z Vertex 2 {m}
  0, 4.1148, 2.1336,                      !- X,Y,Z Vertex 3 {m}
  0, 5.0292, 2.1336;                      !- X,Y,Z Vertex 4 {m}

OS:SubSurface,
  {a42bc8d5-a961-424c-8684-bf53ca232adf}, !- Handle
  Sub Surface 3,                          !- Name
  FixedWindow,                            !- Sub Surface Type
  ,                                       !- Construction Name
  {9bfd93cd-0754-4120-b499-eeb48c1c2213}, !- Surface Name
  ,                                       !- Outside Boundary Condition Object
  ,                                       !- View Factor to Ground
  ,                                       !- Shading Control Name
  ,                                       !- Frame and Divider Name
  ,                                       !- Multiplier
  ,                                       !- Number of Vertices
  0, 2.53365, 0.9144,                     !- X,Y,Z Vertex 1 {m}
  0, 1.61925, 0.9144,                     !- X,Y,Z Vertex 2 {m}
  0, 1.61925, 2.1336,                     !- X,Y,Z Vertex 3 {m}
  0, 2.53365, 2.1336;                     !- X,Y,Z Vertex 4 {m}

OS:Surface,
  {0dd8313b-b703-45f9-8f12-47f1968aba3f}, !- Handle
  Surface 3,                              !- Name
  RoofCeiling,                            !- Surface Type
  ,                                       !- Construction Name
  {db1a182e-2cbf-41c3-9a6c-ba9661b2a2e1}, !- Space Name
  Outdoors,                               !- Outside Boundary Condition
  ,                                       !- Outside Boundary Condition Object
  SunExposed,                             !- Sun Exposure
  WindExposed,                            !- Wind Exposure
  ,                                       !- View Factor to Ground
  ,                                       !- Number of Vertices
  0, 0, 3.9624,                           !- X,Y,Z Vertex 1 {m}
  9.144, 0, 3.9624,                       !- X,Y,Z Vertex 2 {m}
  9.144, 9.144, 3.9624,                   !- X,Y,Z Vertex 3 {m}
  0, 9.144, 3.9624;                       !- X,Y,Z Vertex 4 {m}

OS:Surface,
  {b4ba0af5-d13c-4c29-821b-089b96d8342a}, !- Handle
  Surface 4,                              !- Name
  Wall,                                   !- Surface Type
  ,                                       !- Construction Name
  {db1a182e-2cbf-41c3-9a6c-ba9661b2a2e1}, !- Space Name
  Outdoors,                               !- Outside Boundary Condition
  ,                                       !- Outside Boundary Condition Object
  SunExposed,                             !- Sun Exposure
  WindExposed,                            !- Wind Exposure
  ,                                       !- View Factor to Ground
  ,                                       !- Number of Vertices
  0, 9.144, 0,                            !- X,Y,Z Vertex 1 {m}
  0, 9.144, 3.9624,                       !- X,Y,Z Vertex 2 {m}
  9.144, 9.144, 3.9624,                   !- X,Y,Z Vertex 3 {m}
  9.144, 9.144, 0;                        !- X,Y,Z Vertex 4 {m}

OS:SubSurface,
  {c530769c-d5a5-48c8-b4e3-8071589336a2}, !- Handle
  Sub Surface 4,                          !- Name
  FixedWindow,                            !- Sub Surface Type
  ,                                       !- Construction Name
  {b4ba0af5-d13c-4c29-821b-089b96d8342a}, !- Surface Name
  ,                                       !- Outside Boundary Condition Object
  ,                                       !- View Factor to Ground
  ,                                       !- Shading Control Name
  ,                                       !- Frame and Divider Name
  ,                                       !- Multiplier
  ,                                       !- Number of Vertices
  7.534275, 9.144, 0.9144,                !- X,Y,Z Vertex 1 {m}
  6.619875, 9.144, 0.9144,                !- X,Y,Z Vertex 2 {m}
  6.619875, 9.144, 2.1336,                !- X,Y,Z Vertex 3 {m}
  7.534275, 9.144, 2.1336;                !- X,Y,Z Vertex 4 {m}

OS:SubSurface,
  {7502220d-cee2-4cc2-a265-393f7b88a7ec}, !- Handle
  Sub Surface 5,                          !- Name
  FixedWindow,                            !- Sub Surface Type
  ,                                       !- Construction Name
  {b4ba0af5-d13c-4c29-821b-089b96d8342a}, !- Surface Name
  ,                                       !- Outside Boundary Condition Object
  ,                                       !- View Factor to Ground
  ,                                       !- Shading Control Name
  ,                                       !- Frame and Divider Name
  ,                                       !- Multiplier
  ,                                       !- Number of Vertices
  5.04825, 9.144, 0.9144,                 !- X,Y,Z Vertex 1 {m}
  4.13385, 9.144, 0.9144,                 !- X,Y,Z Vertex 2 {m}
  4.13385, 9.144, 2.1336,                 !- X,Y,Z Vertex 3 {m}
  5.04825, 9.144, 2.1336;                 !- X,Y,Z Vertex 4 {m}

OS:SubSurface,
  {a8625e2e-c0ca-472d-a5ec-234a449500ea}, !- Handle
  Sub Surface 6,                          !- Name
  FixedWindow,                            !- Sub Surface Type
  ,                                       !- Construction Name
  {b4ba0af5-d13c-4c29-821b-089b96d8342a}, !- Surface Name
  ,                                       !- Outside Boundary Condition Object
  ,                                       !- View Factor to Ground
  ,                                       !- Shading Control Name
  ,                                       !- Frame and Divider Name
  ,                                       !- Multiplier
  ,                                       !- Number of Vertices
  2.562225, 9.144, 0.9144,                !- X,Y,Z Vertex 1 {m}
  1.647825, 9.144, 0.9144,                !- X,Y,Z Vertex 2 {m}
  1.647825, 9.144, 2.1336,                !- X,Y,Z Vertex 3 {m}
  2.562225, 9.144, 2.1336;                !- X,Y,Z Vertex 4 {m}

OS:Surface,
  {0231e58a-96a5-45e2-9a9c-a3bb413fa301}, !- Handle
  Surface 5,                              !- Name
  Wall,                                   !- Surface Type
  ,                                       !- Construction Name
  {db1a182e-2cbf-41c3-9a6c-ba9661b2a2e1}, !- Space Name
  Outdoors,                               !- Outside Boundary Condition
  ,                                       !- Outside Boundary Condition Object
  SunExposed,                             !- Sun Exposure
  WindExposed,                            !- Wind Exposure
  ,                                       !- View Factor to Ground
  ,                                       !- Number of Vertices
  9.144, 9.144, 0,                        !- X,Y,Z Vertex 1 {m}
  9.144, 9.144, 3.9624,                   !- X,Y,Z Vertex 2 {m}
  9.144, 0, 3.9624,                       !- X,Y,Z Vertex 3 {m}
  9.144, 0, 0;                            !- X,Y,Z Vertex 4 {m}

OS:SubSurface,
  {2b82e98e-21ca-4432-96f0-8ae6a9137fbf}, !- Handle
  Sub Surface 7,                          !- Name
  FixedWindow,                            !- Sub Surface Type
  ,                                       !- Construction Name
  {0231e58a-96a5-45e2-9a9c-a3bb413fa301}, !- Surface Name
  ,                                       !- Outside Boundary Condition Object
  ,                                       !- View Factor to Ground
  ,                                       !- Shading Control Name
  ,                                       !- Frame and Divider Name
  ,                                       !- Multiplier
  ,                                       !- Number of Vertices
  9.144, 1.6319501016, 0.9144,            !- X,Y,Z Vertex 1 {m}
  9.144, 2.5463501016, 0.9144,            !- X,Y,Z Vertex 2 {m}
  9.144, 2.5463501016, 2.1336,            !- X,Y,Z Vertex 3 {m}
  9.144, 1.6319501016, 2.1336;            !- X,Y,Z Vertex 4 {m}

OS:SubSurface,
  {b7bcb77c-9d80-4369-a4e1-13ad568b8ddb}, !- Handle
  Sub Surface 8,                          !- Name
  FixedWindow,                            !- Sub Surface Type
  ,                                       !- Construction Name
  {0231e58a-96a5-45e2-9a9c-a3bb413fa301}, !- Surface Name
  ,                                       !- Outside Boundary Condition Object
  ,                                       !- View Factor to Ground
  ,                                       !- Shading Control Name
  ,                                       !- Frame and Divider Name
  ,                                       !- Multiplier
  ,                                       !- Number of Vertices
  9.144, 4.1148, 0.9144,                  !- X,Y,Z Vertex 1 {m}
  9.144, 5.0292, 0.9144,                  !- X,Y,Z Vertex 2 {m}
  9.144, 5.0292, 2.1336,                  !- X,Y,Z Vertex 3 {m}
  9.144, 4.1148, 2.1336;                  !- X,Y,Z Vertex 4 {m}

OS:SubSurface,
  {9686fa64-9235-4957-b3d3-bf745ac78bc0}, !- Handle
  Sub Surface 9,                          !- Name
  FixedWindow,                            !- Sub Surface Type
  ,                                       !- Construction Name
  {0231e58a-96a5-45e2-9a9c-a3bb413fa301}, !- Surface Name
  ,                                       !- Outside Boundary Condition Object
  ,                                       !- View Factor to Ground
  ,                                       !- Shading Control Name
  ,                                       !- Frame and Divider Name
  ,                                       !- Multiplier
  ,                                       !- Number of Vertices
  9.144, 6.61035, 0.9144,                 !- X,Y,Z Vertex 1 {m}
  9.144, 7.52475, 0.9144,                 !- X,Y,Z Vertex 2 {m}
  9.144, 7.52475, 2.1336,                 !- X,Y,Z Vertex 3 {m}
  9.144, 6.61035, 2.1336;                 !- X,Y,Z Vertex 4 {m}

OS:Surface,
  {fc4e63f2-18dc-455a-93d8-05467ef978de}, !- Handle
  Surface 6,                              !- Name
  Wall,                                   !- Surface Type
  ,                                       !- Construction Name
  {db1a182e-2cbf-41c3-9a6c-ba9661b2a2e1}, !- Space Name
  Outdoors,                               !- Outside Boundary Condition
  ,                                       !- Outside Boundary Condition Object
  SunExposed,                             !- Sun Exposure
  WindExposed,                            !- Wind Exposure
  ,                                       !- View Factor to Ground
  ,                                       !- Number of Vertices
  9.144, 0, 0,                            !- X,Y,Z Vertex 1 {m}
  9.144, 0, 3.9624,                       !- X,Y,Z Vertex 2 {m}
  0, 0, 3.9624,                           !- X,Y,Z Vertex 3 {m}
  0, 0, 0;                                !- X,Y,Z Vertex 4 {m}

OS:SubSurface,
  {1da60a45-73d3-4fed-b8dd-f9a3b153cdd6}, !- Handle
  Sub Surface 10,                         !- Name
  FixedWindow,                            !- Sub Surface Type
  ,                                       !- Construction Name
  {fc4e63f2-18dc-455a-93d8-05467ef978de}, !- Surface Name
  ,                                       !- Outside Boundary Condition Object
  ,                                       !- View Factor to Ground
  ,                                       !- Shading Control Name
  ,                                       !- Frame and Divider Name
  ,                                       !- Multiplier
  ,                                       !- Number of Vertices
  1.666875, 0, 0.9144,                    !- X,Y,Z Vertex 1 {m}
  2.581275, 0, 0.9144,                    !- X,Y,Z Vertex 2 {m}
  2.581275, 0, 2.1336,                    !- X,Y,Z Vertex 3 {m}
  1.666875, 0, 2.1336;                    !- X,Y,Z Vertex 4 {m}

OS:ShadingSurface,
  {626fc4f9-59ea-4f6f-bfaf-e336a019d554}, !- Handle
  Shading Surface 1,                      !- Name
  ,                                       !- Construction Name
  {a8dc705e-ee91-4ead-810b-4410b4d8fc8c}, !- Shading Surface Group Name
  ,                                       !- Transmittance Schedule Name
  ,                                       !- Number of Vertices
  1.666875, 0, 1.49861016,                !- X,Y,Z Vertex 1 {m}
  1.666875, -0.4572, 1.49861016,          !- X,Y,Z Vertex 2 {m}
  2.581275, -0.4572, 1.49861016,          !- X,Y,Z Vertex 3 {m}
  2.581275, 0, 1.49861016;                !- X,Y,Z Vertex 4 {m}

OS:SubSurface,
  {78abdde0-393f-4cf8-84e9-6e3309d29b21}, !- Handle
  Sub Surface 11,                         !- Name
  FixedWindow,                            !- Sub Surface Type
  ,                                       !- Construction Name
  {fc4e63f2-18dc-455a-93d8-05467ef978de}, !- Surface Name
  ,                                       !- Outside Boundary Condition Object
  ,                                       !- View Factor to Ground
  ,                                       !- Shading Control Name
  ,                                       !- Frame and Divider Name
  ,                                       !- Multiplier
  ,                                       !- Number of Vertices
  4.1529, 0, 0.9144,                      !- X,Y,Z Vertex 1 {m}
  5.0673, 0, 0.9144,                      !- X,Y,Z Vertex 2 {m}
  5.0673, 0, 2.1336,                      !- X,Y,Z Vertex 3 {m}
  4.1529, 0, 2.1336;                      !- X,Y,Z Vertex 4 {m}

OS:SubSurface,
  {dcdd2e13-d4a9-49fe-b8e5-8a5d16cf919a}, !- Handle
  Sub Surface 12,                         !- Name
  FixedWindow,                            !- Sub Surface Type
  ,                                       !- Construction Name
  {fc4e63f2-18dc-455a-93d8-05467ef978de}, !- Surface Name
  ,                                       !- Outside Boundary Condition Object
  ,                                       !- View Factor to Ground
  ,                                       !- Shading Control Name
  ,                                       !- Frame and Divider Name
  ,                                       !- Multiplier
  ,                                       !- Number of Vertices
  6.619875, 0, 0.9144,                    !- X,Y,Z Vertex 1 {m}
  7.534275, 0, 0.9144,                    !- X,Y,Z Vertex 2 {m}
  7.534275, 0, 2.1336,                    !- X,Y,Z Vertex 3 {m}
  6.619875, 0, 2.1336;                    !- X,Y,Z Vertex 4 {m}

OS:ThermalZone,
  {c51657f6-ab0a-43d7-8598-0e390a8936e5}, !- Handle
  sp-1-Zone,                              !- Name
  ,                                       !- Multiplier
  ,                                       !- Ceiling Height {m}
  ,                                       !- Volume {m3}
  ,                                       !- Floor Area {m2}
  ,                                       !- Zone Inside Convection Algorithm
  ,                                       !- Zone Outside Convection Algorithm
  ,                                       !- Zone Conditioning Equipment List Name
  {5f9f5ff0-8ca4-4ca3-8d57-880261767b16}, !- Zone Air Inlet Port List
  {218ae998-6d57-40d8-8fe5-82d59f735418}, !- Zone Air Exhaust Port List
  {87aa648a-eae3-46af-9d32-635626e80c71}, !- Zone Air Node Name
  ,                                       !- Zone Return Air Node Name
  ,                                       !- Primary Daylighting Control Name
  ,                                       !- Fraction of Zone Controlled by Primary Daylighting Control
  ,                                       !- Secondary Daylighting Control Name
  ,                                       !- Fraction of Zone Controlled by Secondary Daylighting Control
  ,                                       !- Illuminance Map Name
  ,                                       !- Group Rendering Name
  ,                                       !- Thermostat Name
  No;                                     !- Use Ideal Air Loads

OS:Node,
  {384952b0-06f4-4739-932b-56f5e0b80159}, !- Handle
  Node 1,                                 !- Name
  {87aa648a-eae3-46af-9d32-635626e80c71}, !- Inlet Port
  ;                                       !- Outlet Port

OS:Connection,
  {87aa648a-eae3-46af-9d32-635626e80c71}, !- Handle
  {c312b0eb-ce81-4d24-84f5-2c65b55c98c4}, !- Name
  {c51657f6-ab0a-43d7-8598-0e390a8936e5}, !- Source Object
  11,                                     !- Outlet Port
  {384952b0-06f4-4739-932b-56f5e0b80159}, !- Target Object
  2;                                      !- Inlet Port

OS:PortList,
  {5f9f5ff0-8ca4-4ca3-8d57-880261767b16}, !- Handle
  Port List 1,                            !- Name
  {c51657f6-ab0a-43d7-8598-0e390a8936e5}; !- HVAC Component

OS:PortList,
  {218ae998-6d57-40d8-8fe5-82d59f735418}, !- Handle
  Port List 2,                            !- Name
  {c51657f6-ab0a-43d7-8598-0e390a8936e5}; !- HVAC Component

OS:Sizing:Zone,
  {9a1d7aa3-ba45-4572-85ba-0af98617fdf5}, !- Handle
  {c51657f6-ab0a-43d7-8598-0e390a8936e5}, !- Zone or ZoneList Name
  14,                                     !- Zone Cooling Design Supply Air Temperature {C}
  40,                                     !- Zone Heating Design Supply Air Temperature {C}
  0.0085,                                 !- Zone Cooling Design Supply Air Humidity Ratio {kg-H2O/kg-air}
  0.008,                                  !- Zone Heating Design Supply Air Humidity Ratio {kg-H2O/kg-air}
  ,                                       !- Zone Heating Sizing Factor
  ,                                       !- Zone Cooling Sizing Factor
  DesignDay,                              !- Cooling Design Air Flow Method
  ,                                       !- Cooling Design Air Flow Rate {m3/s}
  ,                                       !- Cooling Minimum Air Flow per Zone Floor Area {m3/s-m2}
  ,                                       !- Cooling Minimum Air Flow {m3/s}
  ,                                       !- Cooling Minimum Air Flow Fraction
  DesignDay,                              !- Heating Design Air Flow Method
  ,                                       !- Heating Design Air Flow Rate {m3/s}
  ,                                       !- Heating Maximum Air Flow per Zone Floor Area {m3/s-m2}
  ,                                       !- Heating Maximum Air Flow {m3/s}
  ,                                       !- Heating Maximum Air Flow Fraction
  ,                                       !- Design Zone Air Distribution Effectiveness in Cooling Mode
  ;                                       !- Design Zone Air Distribution Effectiveness in Heating Mode

OS:ZoneHVAC:EquipmentList,
  {c3936bdd-3a41-41e4-907b-ed27ece0a0cd}, !- Handle
  Zone HVAC Equipment List 1,             !- Name
  {c51657f6-ab0a-43d7-8598-0e390a8936e5}; !- Thermal Zone

