
OS:Version,
  {76178bdf-94d5-49d7-b3d2-8bdfefcba589}, !- Handle
  1.12.2;                                 !- Version Identifier

OS:SpaceType,
  {4878950b-f025-42ab-bd37-810e93cd38db}, !- Handle
  189.1-2009 - Office - Lobby - CZ4-8,    !- Name
  ,                                       !- Default Construction Set Name
  {9c05090c-50d9-4636-bef9-3cae2049ec42}, !- Default Schedule Set Name
  {7a6178e3-228a-46e3-94fd-7d9f0b886885}, !- Group Rendering Name
  {150f6b6f-f8f5-481d-b86b-b4f86c5d6c89}, !- Design Specification Outdoor Air Object Name
  Office,                                 !- Standards Building Type
  Lobby;                                  !- Standards Space Type

OS:DefaultScheduleSet,
  {9c05090c-50d9-4636-bef9-3cae2049ec42}, !- Handle
  189.1-2009 - Office - Lobby - CZ4-8 Schedule Set, !- Name
  ,                                       !- Hours of Operation Schedule Name
  {4ad384a8-b8ac-4a1b-9e60-28f6ecbf2382}, !- Number of People Schedule Name
  {6e238d6f-7bbf-4bf1-aab0-c70aa7bc525c}, !- People Activity Level Schedule Name
  {2e1a670a-e397-41c6-95ad-bdaa70eba7c6}, !- Lighting Schedule Name
  {9628745b-e8ca-4921-a692-7ee4c6e35a21}, !- Electric Equipment Schedule Name
  ,                                       !- Gas Equipment Schedule Name
  ,                                       !- Hot Water Equipment Schedule Name
  {1877794c-245d-41bb-90a5-b2db5a906a62}, !- Infiltration Schedule Name
  ,                                       !- Steam Equipment Schedule Name
  ;                                       !- Other Equipment Schedule Name

OS:Rendering:Color,
  {7a6178e3-228a-46e3-94fd-7d9f0b886885}, !- Handle
  Rendering Color 23,                     !- Name
  230,                                    !- Rendering Red Value
  157,                                    !- Rendering Green Value
  120;                                    !- Rendering Blue Value

OS:DesignSpecification:OutdoorAir,
  {150f6b6f-f8f5-481d-b86b-b4f86c5d6c89}, !- Handle
  189.1-2009 - Office - Lobby - CZ4-8 Ventilation, !- Name
  Sum,                                    !- Outdoor Air Method
  0.007079211648,                         !- Outdoor Air Flow per Person {m3/s-person}
  ,                                       !- Outdoor Air Flow per Floor Area {m3/s-m2}
  ,                                       !- Outdoor Air Flow Rate {m3/s}
  ,                                       !- Outdoor Air Flow Air Changes per Hour {1/hr}
  ;                                       !- Outdoor Air Flow Rate Fraction Schedule Name

OS:Schedule:Ruleset,
  {4ad384a8-b8ac-4a1b-9e60-28f6ecbf2382}, ! Handle
  Office Misc Occ,                        ! Name
  {9473abe6-d091-4796-843c-be612323549b}, ! Schedule Type Limits Name
  {b7e88cd7-4d15-44d8-af43-a7c4d55adf2b}, ! Default Day Schedule Name
  {bd91025f-c916-4726-bc5a-3e73d07730d6}, ! Summer Design Day Schedule Name
  {880a6b20-f018-44e2-b980-95b97cada6ca}; ! Winter Design Day Schedule Name

OS:Schedule:Day,
  {b7e88cd7-4d15-44d8-af43-a7c4d55adf2b}, ! Handle
  Office Bldg Occ Default Schedule 1,     ! Name
  {9473abe6-d091-4796-843c-be612323549b}, ! Schedule Type Limits Name
  ,                                       ! Interpolate to Timestep
  6,                                      !- Hour 1
  0,                                      !- Minute 1
  0,                                      !- Value Until Time 1
  7,                                      !- Hour 2
  0,                                      !- Minute 2
  0.100000001490116,                      !- Value Until Time 2
  8,                                      !- Hour 3
  0,                                      !- Minute 3
  0.200000002980232,                      !- Value Until Time 3
  20,                                     !- Hour 4
  0,                                      !- Minute 4
  0.400000005960464,                      !- Value Until Time 4
  22,                                     !- Hour 5
  0,                                      !- Minute 5
  0.100000001490116,                      !- Value Until Time 5
  24,                                     !- Hour 6
  0,                                      !- Minute 6
  0.0500000007450581;                     !- Value Until Time 6

OS:Schedule:Day,
  {bd91025f-c916-4726-bc5a-3e73d07730d6}, ! Handle
  Office Bldg Occ Summer Design Day 1,    ! Name
  {9473abe6-d091-4796-843c-be612323549b}, ! Schedule Type Limits Name
  ,                                       ! Interpolate to Timestep
  6,                                      ! Hour 1
  0,                                      ! Minute 1
  0,                                      ! Value Until Time 1
  22,                                     ! Hour 2
  0,                                      ! Minute 2
  1,                                      ! Value Until Time 2
  24,                                     ! Hour 3
  0,                                      ! Minute 3
  0.050000000000000003;                   ! Value Until Time 3

OS:Schedule:Day,
  {880a6b20-f018-44e2-b980-95b97cada6ca}, ! Handle
  Office Bldg Occ Winter Design Day 1,    ! Name
  {9473abe6-d091-4796-843c-be612323549b}, ! Schedule Type Limits Name
  ,                                       ! Interpolate to Timestep
  24,                                     ! Hour 1
  0,                                      ! Minute 1
  0;                                      ! Value Until Time 1

OS:Schedule:Rule,
  {d3f27d97-7c05-4221-8c4f-85603a23c088}, ! Handle
  Office Misc Occ Rule 1,                 ! Name
  {4ad384a8-b8ac-4a1b-9e60-28f6ecbf2382}, ! Schedule Ruleset Name
  0,                                      ! Rule Order
  {c40bd817-d120-41f7-bd80-177d3e1b9934}, ! Day Schedule Name
  Yes,                                    ! Apply Sunday
  No,                                     ! Apply Monday
  No,                                     ! Apply Tuesday
  No,                                     ! Apply Wednesday
  No,                                     ! Apply Thursday
  No,                                     ! Apply Friday
  No,                                     ! Apply Saturday
  ,                                       ! Apply Holiday
  DateRange,                              ! Date Specification Type
  1,                                      ! Start Month
  1,                                      ! Start Day
  12,                                     ! End Month
  31;                                     ! End Day

OS:Schedule:Rule,
  {34a02500-0d42-4f56-a913-6404b6469c82}, ! Handle
  Office Misc Occ Rule 2,                 ! Name
  {4ad384a8-b8ac-4a1b-9e60-28f6ecbf2382}, ! Schedule Ruleset Name
  1,                                      ! Rule Order
  {75c92dbe-d0ea-4fe0-8eae-6318aa6ad180}, ! Day Schedule Name
  No,                                     ! Apply Sunday
  No,                                     ! Apply Monday
  No,                                     ! Apply Tuesday
  No,                                     ! Apply Wednesday
  No,                                     ! Apply Thursday
  No,                                     ! Apply Friday
  Yes,                                    ! Apply Saturday
  ,                                       ! Apply Holiday
  DateRange,                              ! Date Specification Type
  1,                                      ! Start Month
  1,                                      ! Start Day
  12,                                     ! End Month
  31;                                     ! End Day

OS:Schedule:Day,
  {c40bd817-d120-41f7-bd80-177d3e1b9934}, ! Handle
  Office Bldg Occ Rule 1 Day Schedule 1,  ! Name
  {9473abe6-d091-4796-843c-be612323549b}, ! Schedule Type Limits Name
  ,                                       ! Interpolate to Timestep
  24,                                     ! Hour 1
  0,                                      ! Minute 1
  0;                                      ! Value Until Time 1

OS:Schedule:Day,
  {75c92dbe-d0ea-4fe0-8eae-6318aa6ad180}, ! Handle
  Office Bldg Occ Rule 2 Day Schedule 1,  ! Name
  {9473abe6-d091-4796-843c-be612323549b}, ! Schedule Type Limits Name
  ,                                       ! Interpolate to Timestep
  6,                                      !- Hour 1
  0,                                      !- Minute 1
  0,                                      !- Value Until Time 1
  8,                                      !- Hour 2
  0,                                      !- Minute 2
  0.100000001490116,                      !- Value Until Time 2
  14,                                     !- Hour 3
  0,                                      !- Minute 3
  0.25,                                   !- Value Until Time 3
  17,                                     !- Hour 4
  0,                                      !- Minute 4
  0.100000001490116,                      !- Value Until Time 4
  24,                                     !- Hour 5
  0,                                      !- Minute 5
  0;                                      !- Value Until Time 5

OS:Schedule:Ruleset,
  {6e238d6f-7bbf-4bf1-aab0-c70aa7bc525c}, ! Handle
  Office Activity,                        ! Name
  {887a61e1-0681-497a-8ff2-8c8df49b2458}, ! Schedule Type Limits Name
  {22b364bb-cb02-45a1-9824-5d150de76a7e}, ! Default Day Schedule Name
  {bc0b856e-2e92-4010-9cc8-0b9c2ca424d2}, ! Summer Design Day Schedule Name
  {a8040ca7-432f-49ef-b541-c002286cba4f}; ! Winter Design Day Schedule Name

OS:Schedule:Day,
  {22b364bb-cb02-45a1-9824-5d150de76a7e}, ! Handle
  Office Activity Default Schedule,       ! Name
  {887a61e1-0681-497a-8ff2-8c8df49b2458}, ! Schedule Type Limits Name
  ,                                       ! Interpolate to Timestep
  24,                                     !- Hour 1
  0,                                      !- Minute 1
  132;                                    !- Value Until Time 1

OS:Schedule:Day,
  {bc0b856e-2e92-4010-9cc8-0b9c2ca424d2}, ! Handle
  Office Activity Summer Design Day,      ! Name
  {887a61e1-0681-497a-8ff2-8c8df49b2458}, ! Schedule Type Limits Name
  ,                                       ! Interpolate to Timestep
  24,                                     !- Hour 1
  0,                                      !- Minute 1
  132;                                    !- Value Until Time 1

OS:Schedule:Day,
  {a8040ca7-432f-49ef-b541-c002286cba4f}, ! Handle
  Office Activity Winter Design Day,      ! Name
  {887a61e1-0681-497a-8ff2-8c8df49b2458}, ! Schedule Type Limits Name
  ,                                       ! Interpolate to Timestep
  24,                                     !- Hour 1
  0,                                      !- Minute 1
  132;                                    !- Value Until Time 1

OS:Schedule:Ruleset,
  {2e1a670a-e397-41c6-95ad-bdaa70eba7c6}, ! Handle
  Office Bldg Light,                      ! Name
  {9473abe6-d091-4796-843c-be612323549b}, ! Schedule Type Limits Name
  {04df1f22-9b08-4250-9d69-a8b540d1c749}, ! Default Day Schedule Name
  {1f55736a-60d0-4940-b99d-373f1916b0a4}, ! Summer Design Day Schedule Name
  {059f6f7d-97ef-4c21-a8ab-0822d2146147}; ! Winter Design Day Schedule Name

OS:Schedule:Day,
  {04df1f22-9b08-4250-9d69-a8b540d1c749}, ! Handle
  Office Bldg Light Default Schedule,     ! Name
  {9473abe6-d091-4796-843c-be612323549b}, ! Schedule Type Limits Name
  ,                                       ! Interpolate to Timestep
  5,                                      !- Hour 1
  0,                                      !- Minute 1
  0.05,                                   !- Value Until Time 1
  7,                                      !- Hour 2
  0,                                      !- Minute 2
  0.1,                                    !- Value Until Time 2
  8,                                      !- Hour 3
  0,                                      !- Minute 3
  0.3,                                    !- Value Until Time 3
  17,                                     !- Hour 4
  0,                                      !- Minute 4
  0.9,                                    !- Value Until Time 4
  18,                                     !- Hour 5
  0,                                      !- Minute 5
  0.7,                                    !- Value Until Time 5
  20,                                     !- Hour 6
  0,                                      !- Minute 6
  0.5,                                    !- Value Until Time 6
  22,                                     !- Hour 7
  0,                                      !- Minute 7
  0.3,                                    !- Value Until Time 7
  23,                                     !- Hour 8
  0,                                      !- Minute 8
  0.1,                                    !- Value Until Time 8
  24,                                     !- Hour 9
  0,                                      !- Minute 9
  0.05;                                   !- Value Until Time 9

OS:Schedule:Day,
  {1f55736a-60d0-4940-b99d-373f1916b0a4}, ! Handle
  Office Bldg Light Summer Design Day,    ! Name
  {9473abe6-d091-4796-843c-be612323549b}, ! Schedule Type Limits Name
  ,                                       ! Interpolate to Timestep
  24,                                     ! Hour 1
  0,                                      ! Minute 1
  1;                                      ! Value Until Time 1

OS:Schedule:Day,
  {059f6f7d-97ef-4c21-a8ab-0822d2146147}, ! Handle
  Office Bldg Light Winter Design Day,    ! Name
  {9473abe6-d091-4796-843c-be612323549b}, ! Schedule Type Limits Name
  ,                                       ! Interpolate to Timestep
  24,                                     ! Hour 1
  0,                                      ! Minute 1
  0;                                      ! Value Until Time 1

OS:Schedule:Rule,
  {d63e014f-5f03-45ff-9cfa-cf2055d93173}, ! Handle
  Office Bldg Light Rule 1,               ! Name
  {2e1a670a-e397-41c6-95ad-bdaa70eba7c6}, ! Schedule Ruleset Name
  0,                                      ! Rule Order
  {c8cfb46d-6e34-4d40-bf15-689660213e7c}, ! Day Schedule Name
  Yes,                                    ! Apply Sunday
  No,                                     ! Apply Monday
  No,                                     ! Apply Tuesday
  No,                                     ! Apply Wednesday
  No,                                     ! Apply Thursday
  No,                                     ! Apply Friday
  No,                                     ! Apply Saturday
  ,                                       ! Apply Holiday
  DateRange,                              ! Date Specification Type
  1,                                      ! Start Month
  1,                                      ! Start Day
  12,                                     ! End Month
  31;                                     ! End Day

OS:Schedule:Rule,
  {fc31bda9-f6bd-41d9-a7ab-3ae611db198e}, ! Handle
  Office Bldg Light Rule 2,               ! Name
  {2e1a670a-e397-41c6-95ad-bdaa70eba7c6}, ! Schedule Ruleset Name
  1,                                      ! Rule Order
  {3fb79fa6-1cf9-49d4-844b-fd5b4499bc48}, ! Day Schedule Name
  No,                                     ! Apply Sunday
  No,                                     ! Apply Monday
  No,                                     ! Apply Tuesday
  No,                                     ! Apply Wednesday
  No,                                     ! Apply Thursday
  No,                                     ! Apply Friday
  Yes,                                    ! Apply Saturday
  ,                                       ! Apply Holiday
  DateRange,                              ! Date Specification Type
  1,                                      ! Start Month
  1,                                      ! Start Day
  12,                                     ! End Month
  31;                                     ! End Day

OS:Schedule:Day,
  {c8cfb46d-6e34-4d40-bf15-689660213e7c}, ! Handle
  Office Bldg Light Rule 1 Day Schedule,  ! Name
  {9473abe6-d091-4796-843c-be612323549b}, ! Schedule Type Limits Name
  ,                                       ! Interpolate to Timestep
  24,                                     ! Hour 1
  0,                                      ! Minute 1
  0.050000000000000003;                   ! Value Until Time 1

OS:Schedule:Day,
  {3fb79fa6-1cf9-49d4-844b-fd5b4499bc48}, ! Handle
  Office Bldg Light Rule 2 Day Schedule,  ! Name
  {9473abe6-d091-4796-843c-be612323549b}, ! Schedule Type Limits Name
  ,                                       ! Interpolate to Timestep
  6,                                      ! Hour 1
  0,                                      ! Minute 1
  0.050000000000000003,                   ! Value Until Time 1
  8,                                      ! Hour 2
  0,                                      ! Minute 2
  0.10000000000000001,                    ! Value Until Time 2
  14,                                     ! Hour 3
  0,                                      ! Minute 3
  0.5,                                    ! Value Until Time 3
  17,                                     ! Hour 4
  0,                                      ! Minute 4
  0.14999999999999999,                    ! Value Until Time 4
  24,                                     ! Hour 5
  0,                                      ! Minute 5
  0.050000000000000003;                   ! Value Until Time 5

OS:Schedule:Ruleset,
  {9628745b-e8ca-4921-a692-7ee4c6e35a21}, ! Handle
  Office Bldg Equip,                      ! Name
  {9473abe6-d091-4796-843c-be612323549b}, ! Schedule Type Limits Name
  {b566ee75-8f11-4cca-a84d-6ef40e503b4b}, ! Default Day Schedule Name
  {365a7888-cb78-4c14-a4f3-10b710bb7c25}, ! Summer Design Day Schedule Name
  {36b74ef3-6028-4f50-b08a-04117e6c4328}; ! Winter Design Day Schedule Name

OS:Schedule:Day,
  {b566ee75-8f11-4cca-a84d-6ef40e503b4b}, ! Handle
  Office Bldg Equip Default Schedule,     ! Name
  {9473abe6-d091-4796-843c-be612323549b}, ! Schedule Type Limits Name
  ,                                       ! Interpolate to Timestep
  8,                                      !- Hour 1
  0,                                      !- Minute 1
  0.4,                                    !- Value Until Time 1
  12,                                     !- Hour 2
  0,                                      !- Minute 2
  0.9,                                    !- Value Until Time 2
  13,                                     !- Hour 3
  0,                                      !- Minute 3
  0.8,                                    !- Value Until Time 3
  17,                                     !- Hour 4
  0,                                      !- Minute 4
  0.9,                                    !- Value Until Time 4
  18,                                     !- Hour 5
  0,                                      !- Minute 5
  0.8,                                    !- Value Until Time 5
  20,                                     !- Hour 6
  0,                                      !- Minute 6
  0.6,                                    !- Value Until Time 6
  22,                                     !- Hour 7
  0,                                      !- Minute 7
  0.5,                                    !- Value Until Time 7
  24,                                     !- Hour 8
  0,                                      !- Minute 8
  0.4;                                    !- Value Until Time 8

OS:Schedule:Day,
  {365a7888-cb78-4c14-a4f3-10b710bb7c25}, ! Handle
  Office Bldg Equip Summer Design Day,    ! Name
  {9473abe6-d091-4796-843c-be612323549b}, ! Schedule Type Limits Name
  ,                                       ! Interpolate to Timestep
  24,                                     ! Hour 1
  0,                                      ! Minute 1
  1;                                      ! Value Until Time 1

OS:Schedule:Day,
  {36b74ef3-6028-4f50-b08a-04117e6c4328}, ! Handle
  Office Bldg Equip Winter Design Day,    ! Name
  {9473abe6-d091-4796-843c-be612323549b}, ! Schedule Type Limits Name
  ,                                       ! Interpolate to Timestep
  24,                                     ! Hour 1
  0,                                      ! Minute 1
  0;                                      ! Value Until Time 1

OS:Schedule:Rule,
  {d695b96b-98db-48ea-af63-9c3e962a4dbb}, ! Handle
  Office Bldg Equip Rule 1,               ! Name
  {9628745b-e8ca-4921-a692-7ee4c6e35a21}, ! Schedule Ruleset Name
  0,                                      ! Rule Order
  {ca2f2aa4-2359-4ce1-9415-3278ddf7c8d7}, ! Day Schedule Name
  Yes,                                    ! Apply Sunday
  No,                                     ! Apply Monday
  No,                                     ! Apply Tuesday
  No,                                     ! Apply Wednesday
  No,                                     ! Apply Thursday
  No,                                     ! Apply Friday
  No,                                     ! Apply Saturday
  ,                                       ! Apply Holiday
  DateRange,                              ! Date Specification Type
  1,                                      ! Start Month
  1,                                      ! Start Day
  12,                                     ! End Month
  31;                                     ! End Day

OS:Schedule:Rule,
  {bd230193-ccbc-4224-b92c-91422f3057bc}, ! Handle
  Office Bldg Equip Rule 2,               ! Name
  {9628745b-e8ca-4921-a692-7ee4c6e35a21}, ! Schedule Ruleset Name
  1,                                      ! Rule Order
  {38ebecf5-88d7-469b-825e-f5dacfdda29a}, ! Day Schedule Name
  No,                                     ! Apply Sunday
  No,                                     ! Apply Monday
  No,                                     ! Apply Tuesday
  No,                                     ! Apply Wednesday
  No,                                     ! Apply Thursday
  No,                                     ! Apply Friday
  Yes,                                    ! Apply Saturday
  ,                                       ! Apply Holiday
  DateRange,                              ! Date Specification Type
  1,                                      ! Start Month
  1,                                      ! Start Day
  12,                                     ! End Month
  31;                                     ! End Day

OS:Schedule:Day,
  {ca2f2aa4-2359-4ce1-9415-3278ddf7c8d7}, ! Handle
  Office Bldg Equip Rule 1 Day Schedule,  ! Name
  {9473abe6-d091-4796-843c-be612323549b}, ! Schedule Type Limits Name
  ,                                       ! Interpolate to Timestep
  24,                                     ! Hour 1
  0,                                      ! Minute 1
  0.29999999999999999;                    ! Value Until Time 1

OS:Schedule:Day,
  {38ebecf5-88d7-469b-825e-f5dacfdda29a}, ! Handle
  Office Bldg Equip Rule 2 Day Schedule,  ! Name
  {9473abe6-d091-4796-843c-be612323549b}, ! Schedule Type Limits Name
  ,                                       ! Interpolate to Timestep
  6,                                      ! Hour 1
  0,                                      ! Minute 1
  0.29999999999999999,                    ! Value Until Time 1
  8,                                      ! Hour 2
  0,                                      ! Minute 2
  0.40000000000000002,                    ! Value Until Time 2
  14,                                     ! Hour 3
  0,                                      ! Minute 3
  0.5,                                    ! Value Until Time 3
  17,                                     ! Hour 4
  0,                                      ! Minute 4
  0.34999999999999998,                    ! Value Until Time 4
  24,                                     ! Hour 5
  0,                                      ! Minute 5
  0.29999999999999999;                    ! Value Until Time 5

OS:Schedule:Ruleset,
  {1877794c-245d-41bb-90a5-b2db5a906a62}, ! Handle
  Office Infil Quarter On,                ! Name
  {9473abe6-d091-4796-843c-be612323549b}, ! Schedule Type Limits Name
  {a5b9a372-4830-45f9-9397-60a3d001d00b}, ! Default Day Schedule Name
  {8208156b-f88e-497e-9b4d-e396ebf2fe98}, ! Summer Design Day Schedule Name
  {78c8b5e2-3635-4a6e-b5ed-5121ca46c2b4}; ! Winter Design Day Schedule Name

OS:Schedule:Day,
  {a5b9a372-4830-45f9-9397-60a3d001d00b}, ! Handle
  Office Infil Quarter On Default Schedule, ! Name
  {9473abe6-d091-4796-843c-be612323549b}, ! Schedule Type Limits Name
  ,                                       ! Interpolate to Timestep
  6,                                      !- Hour 1
  0,                                      !- Minute 1
  1,                                      !- Value Until Time 1
  22,                                     !- Hour 2
  0,                                      !- Minute 2
  0.25,                                   !- Value Until Time 2
  24,                                     !- Hour 3
  0,                                      !- Minute 3
  1;                                      !- Value Until Time 3

OS:Schedule:Day,
  {8208156b-f88e-497e-9b4d-e396ebf2fe98}, ! Handle
  Office Infil Quarter On Summer Design Day, ! Name
  {9473abe6-d091-4796-843c-be612323549b}, ! Schedule Type Limits Name
  ,                                       ! Interpolate to Timestep
  6,                                      ! Hour 1
  0,                                      ! Minute 1
  1,                                      ! Value Until Time 1
  22,                                     ! Hour 2
  0,                                      ! Minute 2
  0.25,                                   ! Value Until Time 2
  24,                                     ! Hour 3
  0,                                      ! Minute 3
  1;                                      ! Value Until Time 3

OS:Schedule:Day,
  {78c8b5e2-3635-4a6e-b5ed-5121ca46c2b4}, ! Handle
  Office Infil Quarter On Winter Design Day, ! Name
  {9473abe6-d091-4796-843c-be612323549b}, ! Schedule Type Limits Name
  ,                                       ! Interpolate to Timestep
  6,                                      ! Hour 1
  0,                                      ! Minute 1
  1,                                      ! Value Until Time 1
  18,                                     ! Hour 2
  0,                                      ! Minute 2
  0.25,                                   ! Value Until Time 2
  24,                                     ! Hour 3
  0,                                      ! Minute 3
  1;                                      ! Value Until Time 3

OS:Schedule:Rule,
  {a421370e-7f2f-4ecb-8ec8-0b425aff7ecd}, ! Handle
  Office Infil Quarter On Rule 1,         ! Name
  {1877794c-245d-41bb-90a5-b2db5a906a62}, ! Schedule Ruleset Name
  0,                                      ! Rule Order
  {31a665b3-8283-4f09-b928-44463328bc5b}, ! Day Schedule Name
  Yes,                                    ! Apply Sunday
  No,                                     ! Apply Monday
  No,                                     ! Apply Tuesday
  No,                                     ! Apply Wednesday
  No,                                     ! Apply Thursday
  No,                                     ! Apply Friday
  No,                                     ! Apply Saturday
  ,                                       ! Apply Holiday
  DateRange,                              ! Date Specification Type
  1,                                      ! Start Month
  1,                                      ! Start Day
  12,                                     ! End Month
  31;                                     ! End Day

OS:Schedule:Rule,
  {a63575b1-de91-4f2d-a148-ed6be0418519}, ! Handle
  Office Infil Quarter On Rule 2,         ! Name
  {1877794c-245d-41bb-90a5-b2db5a906a62}, ! Schedule Ruleset Name
  1,                                      ! Rule Order
  {fc3b1fc1-5062-420a-ae9d-fea701569810}, ! Day Schedule Name
  No,                                     ! Apply Sunday
  No,                                     ! Apply Monday
  No,                                     ! Apply Tuesday
  No,                                     ! Apply Wednesday
  No,                                     ! Apply Thursday
  No,                                     ! Apply Friday
  Yes,                                    ! Apply Saturday
  ,                                       ! Apply Holiday
  DateRange,                              ! Date Specification Type
  1,                                      ! Start Month
  1,                                      ! Start Day
  12,                                     ! End Month
  31;                                     ! End Day

OS:Schedule:Day,
  {31a665b3-8283-4f09-b928-44463328bc5b}, ! Handle
  Office Infil Quarter On Rule 1 Day Schedule, ! Name
  {9473abe6-d091-4796-843c-be612323549b}, ! Schedule Type Limits Name
  ,                                       ! Interpolate to Timestep
  24,                                     ! Hour 1
  0,                                      ! Minute 1
  1;                                      ! Value Until Time 1

OS:Schedule:Day,
  {fc3b1fc1-5062-420a-ae9d-fea701569810}, ! Handle
  Office Infil Quarter On Rule 2 Day Schedule, ! Name
  {9473abe6-d091-4796-843c-be612323549b}, ! Schedule Type Limits Name
  ,                                       ! Interpolate to Timestep
  6,                                      ! Hour 1
  0,                                      ! Minute 1
  1,                                      ! Value Until Time 1
  18,                                     ! Hour 2
  0,                                      ! Minute 2
  0.25,                                   ! Value Until Time 2
  24,                                     ! Hour 3
  0,                                      ! Minute 3
  1;                                      ! Value Until Time 3

OS:ScheduleTypeLimits,
  {9473abe6-d091-4796-843c-be612323549b}, ! Handle
  Fraction,                               ! Name