
OS:Version,
  {e1190c42-7d3d-46ca-aa06-dbac472dd656}, !- Handle
  1.12.2;                                 !- Version Identifier

OS:Facility,
  {b4241e37-fef7-4861-9a99-790212a5083e}; !- Handle

OS:Building,
  {81fe1130-17d7-47be-a5b3-76dc1e1a8613}, !- Handle
  Building 1,                             !- Name
  ,                                       !- Building Sector Type
  ,                                       !- North Axis {deg}
  ,                                       !- Nominal Floor to Floor Height {m}
  ,                                       !- Space Type Name
  ,                                       !- Default Construction Set Name
  ;                                       !- Default Schedule Set Name

OS:BuildingStory,
  {cf7cba6a-d736-4475-bafd-1ea8fadd46a7}, !- Handle
  Level 1,                                !- Name
  ,                                       !- Nominal Z Coordinate {m}
  ,                                       !- Nominal Floor to Floor Height {m}
  ,                                       !- Default Construction Set Name
  ,                                       !- Default Schedule Set Name
  ;                                       !- Group Rendering Name

OS:BuildingStory,
  {ed2d8b99-e862-4900-93d4-d5cf977fe3cd}, !- Handle
  Level 2,                                !- Name
  ,                                       !- Nominal Z Coordinate {m}
  3.9624,                                 !- Nominal Floor to Floor Height {m}
  ,                                       !- Default Construction Set Name
  ,                                       !- Default Schedule Set Name
  ;                                       !- Group Rendering Name

OS:ShadingSurfaceGroup,
  {9585b1db-d305-4967-a635-df036f1b015e}, !- Handle
  Shading Surface Group 1,                !- Name
  Building;                               !- Shading Surface Type

OS:Space,
  {59d470b3-ee9b-4bac-89e7-fe0700399732}, !- Handle
  sp-1-Space,                             !- Name
  ,                                       !- Space Type Name
  ,                                       !- Default Construction Set Name
  ,                                       !- Default Schedule Set Name
  ,                                       !- Direction of Relative North {deg}
  ,                                       !- X Origin {m}
  ,                                       !- Y Origin {m}
  ,                                       !- Z Origin {m}
  {cf7cba6a-d736-4475-bafd-1ea8fadd46a7}, !- Building Story Name
  {0059a268-70a9-4d27-96ca-e4d3d4e714ab}; !- Thermal Zone Name

OS:Surface,
  {704b4974-0f92-4b5d-a3b5-b74603ddb2f1}, !- Handle
  Surface 1,                              !- Name
  Floor,                                  !- Surface Type
  ,                                       !- Construction Name
  {59d470b3-ee9b-4bac-89e7-fe0700399732}, !- Space Name
  Ground,                                 !- Outside Boundary Condition
  ,                                       !- Outside Boundary Condition Object
  NoSun,                                  !- Sun Exposure
  NoWind,                                 !- Wind Exposure
  ,                                       !- View Factor to Ground
  ,                                       !- Number of Vertices
  0, 0, 0,                                !- X,Y,Z Vertex 1 {m}
  0, 9.144, 0,                            !- X,Y,Z Vertex 2 {m}
  9.144, 9.144, 0,                        !- X,Y,Z Vertex 3 {m}
  9.144, 0, 0;                            !- X,Y,Z Vertex 4 {m}

OS:Surface,
  {bc721cb1-6473-41eb-be89-0fb36fe5fbec}, !- Handle
  Surface 2,                              !- Name
  Wall,                                   !- Surface Type
  ,                                       !- Construction Name
  {59d470b3-ee9b-4bac-89e7-fe0700399732}, !- Space Name
  Outdoors,                               !- Outside Boundary Condition
  ,                                       !- Outside Boundary Condition Object
  SunExposed,                             !- Sun Exposure
  WindExposed,                            !- Wind Exposure
  ,                                       !- View Factor to Ground
  ,                                       !- Number of Vertices
  0, 0, 0,                                !- X,Y,Z Vertex 1 {m}
  0, 0, 3.9624,                           !- X,Y,Z Vertex 2 {m}
  0, 9.144, 3.9624,                       !- X,Y,Z Vertex 3 {m}
  0, 9.144, 0;                            !- X,Y,Z Vertex 4 {m}

OS:SubSurface,
  {ac0954f3-4c6a-406a-ba6e-3b7c696fec0c}, !- Handle
  Sub Surface 1,                          !- Name
  FixedWindow,                            !- Sub Surface Type
  ,                                       !- Construction Name
  {bc721cb1-6473-41eb-be89-0fb36fe5fbec}, !- Surface Name
  ,                                       !- Outside Boundary Condition Object
  ,                                       !- View Factor to Ground
  ,                                       !- Shading Control Name
  ,                                       !- Frame and Divider Name
  ,                                       !- Multiplier
  ,                                       !- Number of Vertices
  0, 7.52475, 0.9144,                     !- X,Y,Z Vertex 1 {m}
  0, 6.61035, 0.9144,                     !- X,Y,Z Vertex 2 {m}
  0, 6.61035, 2.1336,                     !- X,Y,Z Vertex 3 {m}
  0, 7.52475, 2.1336;                     !- X,Y,Z Vertex 4 {m}

OS:SubSurface,
  {17c02ab4-3094-44fe-a2ee-4456683d44a6}, !- Handle
  Sub Surface 2,                          !- Name
  FixedWindow,                            !- Sub Surface Type
  ,                                       !- Construction Name
  {bc721cb1-6473-41eb-be89-0fb36fe5fbec}, !- Surface Name
  ,                                       !- Outside Boundary Condition Object
  ,                                       !- View Factor to Ground
  ,                                       !- Shading Control Name
  ,                                       !- Frame and Divider Name
  ,                                       !- Multiplier
  ,                                       !- Number of Vertices
  0, 5.0292, 0.9144,                      !- X,Y,Z Vertex 1 {m}
  0, 4.1148, 0.9144,                      !- X,Y,Z Vertex 2 {m}
  0, 4.1148, 2.1336,                      !- X,Y,Z Vertex 3 {m}
  0, 5.0292, 2.1336;                      !- X,Y,Z Vertex 4 {m}

OS:SubSurface,
  {6fa102ac-c676-4165-bd8e-98f2267d69d7}, !- Handle
  Sub Surface 3,                          !- Name
  FixedWindow,                            !- Sub Surface Type
  ,                                       !- Construction Name
  {bc721cb1-6473-41eb-be89-0fb36fe5fbec}, !- Surface Name
  ,                                       !- Outside Boundary Condition Object
  ,                                       !- View Factor to Ground
  ,                                       !- Shading Control Name
  ,                                       !- Frame and Divider Name
  ,                                       !- Multiplier
  ,                                       !- Number of Vertices
  0, 2.53365, 0.9144,                     !- X,Y,Z Vertex 1 {m}
  0, 1.61925, 0.9144,                     !- X,Y,Z Vertex 2 {m}
  0, 1.61925, 2.1336,                     !- X,Y,Z Vertex 3 {m}
  0, 2.53365, 2.1336;                     !- X,Y,Z Vertex 4 {m}

OS:Surface,
  {af0707a2-b1ca-47ba-ac49-63be16790e46}, !- Handle
  Surface 3,                              !- Name
  RoofCeiling,                            !- Surface Type
  ,                                       !- Construction Name
  {59d470b3-ee9b-4bac-89e7-fe0700399732}, !- Space Name
  Outdoors,                               !- Outside Boundary Condition
  ,                                       !- Outside Boundary Condition Object
  SunExposed,                             !- Sun Exposure
  WindExposed,                            !- Wind Exposure
  ,                                       !- View Factor to Ground
  ,                                       !- Number of Vertices
  0, 0, 3.9624,                           !- X,Y,Z Vertex 1 {m}
  9.144, 0, 3.9624,                       !- X,Y,Z Vertex 2 {m}
  9.144, 9.144, 3.9624,                   !- X,Y,Z Vertex 3 {m}
  0, 9.144, 3.9624;                       !- X,Y,Z Vertex 4 {m}

OS:Surface,
  {a6e605dd-8714-42cc-9b8b-e4f892ef9933}, !- Handle
  Surface 4,                              !- Name
  Wall,                                   !- Surface Type
  ,                                       !- Construction Name
  {59d470b3-ee9b-4bac-89e7-fe0700399732}, !- Space Name
  Outdoors,                               !- Outside Boundary Condition
  ,                                       !- Outside Boundary Condition Object
  SunExposed,                             !- Sun Exposure
  WindExposed,                            !- Wind Exposure
  ,                                       !- View Factor to Ground
  ,                                       !- Number of Vertices
  0, 9.144, 0,                            !- X,Y,Z Vertex 1 {m}
  0, 9.144, 3.9624,                       !- X,Y,Z Vertex 2 {m}
  9.144, 9.144, 3.9624,                   !- X,Y,Z Vertex 3 {m}
  9.144, 9.144, 0;                        !- X,Y,Z Vertex 4 {m}

OS:SubSurface,
  {eef9a699-650b-4bfb-b999-749e2f99584c}, !- Handle
  Sub Surface 4,                          !- Name
  FixedWindow,                            !- Sub Surface Type
  ,                                       !- Construction Name
  {a6e605dd-8714-42cc-9b8b-e4f892ef9933}, !- Surface Name
  ,                                       !- Outside Boundary Condition Object
  ,                                       !- View Factor to Ground
  ,                                       !- Shading Control Name
  ,                                       !- Frame and Divider Name
  ,                                       !- Multiplier
  ,                                       !- Number of Vertices
  7.534275, 9.144, 0.9144,                !- X,Y,Z Vertex 1 {m}
  6.619875, 9.144, 0.9144,                !- X,Y,Z Vertex 2 {m}
  6.619875, 9.144, 2.1336,                !- X,Y,Z Vertex 3 {m}
  7.534275, 9.144, 2.1336;                !- X,Y,Z Vertex 4 {m}

OS:SubSurface,
  {d76d912b-eb04-4261-a07d-fa794941e2e0}, !- Handle
  Sub Surface 5,                          !- Name
  FixedWindow,                            !- Sub Surface Type
  ,                                       !- Construction Name
  {a6e605dd-8714-42cc-9b8b-e4f892ef9933}, !- Surface Name
  ,                                       !- Outside Boundary Condition Object
  ,                                       !- View Factor to Ground
  ,                                       !- Shading Control Name
  ,                                       !- Frame and Divider Name
  ,                                       !- Multiplier
  ,                                       !- Number of Vertices
  5.04825, 9.144, 0.9144,                 !- X,Y,Z Vertex 1 {m}
  4.13385, 9.144, 0.9144,                 !- X,Y,Z Vertex 2 {m}
  4.13385, 9.144, 2.1336,                 !- X,Y,Z Vertex 3 {m}
  5.04825, 9.144, 2.1336;                 !- X,Y,Z Vertex 4 {m}

OS:SubSurface,
  {5c2e943f-a5b5-45e0-980b-81f1fb69721f}, !- Handle
  Sub Surface 6,                          !- Name
  FixedWindow,                            !- Sub Surface Type
  ,                                       !- Construction Name
  {a6e605dd-8714-42cc-9b8b-e4f892ef9933}, !- Surface Name
  ,                                       !- Outside Boundary Condition Object
  ,                                       !- View Factor to Ground
  ,                                       !- Shading Control Name
  ,                                       !- Frame and Divider Name
  ,                                       !- Multiplier
  ,                                       !- Number of Vertices
  2.562225, 9.144, 0.9144,                !- X,Y,Z Vertex 1 {m}
  1.647825, 9.144, 0.9144,                !- X,Y,Z Vertex 2 {m}
  1.647825, 9.144, 2.1336,                !- X,Y,Z Vertex 3 {m}
  2.562225, 9.144, 2.1336;                !- X,Y,Z Vertex 4 {m}

OS:Surface,
  {11f9a717-e44d-45cf-8109-eeaf8610187e}, !- Handle
  Surface 5,                              !- Name
  Wall,                                   !- Surface Type
  ,                                       !- Construction Name
  {59d470b3-ee9b-4bac-89e7-fe0700399732}, !- Space Name
  Outdoors,                               !- Outside Boundary Condition
  ,                                       !- Outside Boundary Condition Object
  SunExposed,                             !- Sun Exposure
  WindExposed,                            !- Wind Exposure
  ,                                       !- View Factor to Ground
  ,                                       !- Number of Vertices
  9.144, 9.144, 0,                        !- X,Y,Z Vertex 1 {m}
  9.144, 9.144, 3.9624,                   !- X,Y,Z Vertex 2 {m}
  9.144, 0, 3.9624,                       !- X,Y,Z Vertex 3 {m}
  9.144, 0, 0;                            !- X,Y,Z Vertex 4 {m}

OS:SubSurface,
  {71d53c50-6b41-4271-b512-edbefcf16b28}, !- Handle
  Sub Surface 7,                          !- Name
  FixedWindow,                            !- Sub Surface Type
  ,                                       !- Construction Name
  {11f9a717-e44d-45cf-8109-eeaf8610187e}, !- Surface Name
  ,                                       !- Outside Boundary Condition Object
  ,                                       !- View Factor to Ground
  ,                                       !- Shading Control Name
  ,                                       !- Frame and Divider Name
  ,                                       !- Multiplier
  ,                                       !- Number of Vertices
  9.144, 1.6319501016, 0.9144,            !- X,Y,Z Vertex 1 {m}
  9.144, 2.5463501016, 0.9144,            !- X,Y,Z Vertex 2 {m}
  9.144, 2.5463501016, 2.1336,            !- X,Y,Z Vertex 3 {m}
  9.144, 1.6319501016, 2.1336;            !- X,Y,Z Vertex 4 {m}

OS:SubSurface,
  {a4c4a14b-e0cf-4e6f-80c5-8fceec12839d}, !- Handle
  Sub Surface 8,                          !- Name
  FixedWindow,                            !- Sub Surface Type
  ,                                       !- Construction Name
  {11f9a717-e44d-45cf-8109-eeaf8610187e}, !- Surface Name
  ,                                       !- Outside Boundary Condition Object
  ,                                       !- View Factor to Ground
  ,                                       !- Shading Control Name
  ,                                       !- Frame and Divider Name
  ,                                       !- Multiplier
  ,                                       !- Number of Vertices
  9.144, 4.1148, 0.9144,                  !- X,Y,Z Vertex 1 {m}
  9.144, 5.0292, 0.9144,                  !- X,Y,Z Vertex 2 {m}
  9.144, 5.0292, 2.1336,                  !- X,Y,Z Vertex 3 {m}
  9.144, 4.1148, 2.1336;                  !- X,Y,Z Vertex 4 {m}

OS:SubSurface,
  {aa40b9a8-d8df-4a59-9cae-bed45b753f13}, !- Handle
  Sub Surface 9,                          !- Name
  FixedWindow,                            !- Sub Surface Type
  ,                                       !- Construction Name
  {11f9a717-e44d-45cf-8109-eeaf8610187e}, !- Surface Name
  ,                                       !- Outside Boundary Condition Object
  ,                                       !- View Factor to Ground
  ,                                       !- Shading Control Name
  ,                                       !- Frame and Divider Name
  ,                                       !- Multiplier
  ,                                       !- Number of Vertices
  9.144, 6.61035, 0.9144,                 !- X,Y,Z Vertex 1 {m}
  9.144, 7.52475, 0.9144,                 !- X,Y,Z Vertex 2 {m}
  9.144, 7.52475, 2.1336,                 !- X,Y,Z Vertex 3 {m}
  9.144, 6.61035, 2.1336;                 !- X,Y,Z Vertex 4 {m}

OS:Surface,
  {15411892-7f27-46bc-ab80-561be28cbc89}, !- Handle
  Surface 6,                              !- Name
  Wall,                                   !- Surface Type
  ,                                       !- Construction Name
  {59d470b3-ee9b-4bac-89e7-fe0700399732}, !- Space Name
  Outdoors,                               !- Outside Boundary Condition
  ,                                       !- Outside Boundary Condition Object
  SunExposed,                             !- Sun Exposure
  WindExposed,                            !- Wind Exposure
  ,                                       !- View Factor to Ground
  ,                                       !- Number of Vertices
  9.144, 0, 0,                            !- X,Y,Z Vertex 1 {m}
  9.144, 0, 3.9624,                       !- X,Y,Z Vertex 2 {m}
  0, 0, 3.9624,                           !- X,Y,Z Vertex 3 {m}
  0, 0, 0;                                !- X,Y,Z Vertex 4 {m}

OS:SubSurface,
  {15606ea3-381d-429c-87e9-b6d65c77c42f}, !- Handle
  Sub Surface 10,                         !- Name
  FixedWindow,                            !- Sub Surface Type
  ,                                       !- Construction Name
  {15411892-7f27-46bc-ab80-561be28cbc89}, !- Surface Name
  ,                                       !- Outside Boundary Condition Object
  ,                                       !- View Factor to Ground
  ,                                       !- Shading Control Name
  ,                                       !- Frame and Divider Name
  ,                                       !- Multiplier
  ,                                       !- Number of Vertices
  1.666875, 0, 0.9144,                    !- X,Y,Z Vertex 1 {m}
  2.581275, 0, 0.9144,                    !- X,Y,Z Vertex 2 {m}
  2.581275, 0, 2.1336,                    !- X,Y,Z Vertex 3 {m}
  1.666875, 0, 2.1336;                    !- X,Y,Z Vertex 4 {m}

OS:ShadingSurface,
  {4f8e84b4-7cd6-44c4-a1e6-4fb3ce49f017}, !- Handle
  Shading Surface 1,                      !- Name
  ,                                       !- Construction Name
  {9585b1db-d305-4967-a635-df036f1b015e}, !- Shading Surface Group Name
  ,                                       !- Transmittance Schedule Name
  ,                                       !- Number of Vertices
  1.666875, 0, 1.49861016,                !- X,Y,Z Vertex 1 {m}
  1.666875, -0.4572, 1.49861016,          !- X,Y,Z Vertex 2 {m}
  2.581275, -0.4572, 1.49861016,          !- X,Y,Z Vertex 3 {m}
  2.581275, 0, 1.49861016;                !- X,Y,Z Vertex 4 {m}

OS:SubSurface,
  {e6a03df1-2bdb-4fa9-b8e7-741d7f76aa64}, !- Handle
  Sub Surface 11,                         !- Name
  FixedWindow,                            !- Sub Surface Type
  ,                                       !- Construction Name
  {15411892-7f27-46bc-ab80-561be28cbc89}, !- Surface Name
  ,                                       !- Outside Boundary Condition Object
  ,                                       !- View Factor to Ground
  ,                                       !- Shading Control Name
  ,                                       !- Frame and Divider Name
  ,                                       !- Multiplier
  ,                                       !- Number of Vertices
  4.1529, 0, 0.9144,                      !- X,Y,Z Vertex 1 {m}
  5.0673, 0, 0.9144,                      !- X,Y,Z Vertex 2 {m}
  5.0673, 0, 2.1336,                      !- X,Y,Z Vertex 3 {m}
  4.1529, 0, 2.1336;                      !- X,Y,Z Vertex 4 {m}

OS:SubSurface,
  {e9eb7f3d-9bc9-4525-abd7-e16991f5a735}, !- Handle
  Sub Surface 12,                         !- Name
  FixedWindow,                            !- Sub Surface Type
  ,                                       !- Construction Name
  {15411892-7f27-46bc-ab80-561be28cbc89}, !- Surface Name
  ,                                       !- Outside Boundary Condition Object
  ,                                       !- View Factor to Ground
  ,                                       !- Shading Control Name
  ,                                       !- Frame and Divider Name
  ,                                       !- Multiplier
  ,                                       !- Number of Vertices
  6.619875, 0, 0.9144,                    !- X,Y,Z Vertex 1 {m}
  7.534275, 0, 0.9144,                    !- X,Y,Z Vertex 2 {m}
  7.534275, 0, 2.1336,                    !- X,Y,Z Vertex 3 {m}
  6.619875, 0, 2.1336;                    !- X,Y,Z Vertex 4 {m}

OS:ThermalZone,
  {0059a268-70a9-4d27-96ca-e4d3d4e714ab}, !- Handle
  sp-1-Zone,                              !- Name
  ,                                       !- Multiplier
  ,                                       !- Ceiling Height {m}
  ,                                       !- Volume {m3}
  ,                                       !- Floor Area {m2}
  ,                                       !- Zone Inside Convection Algorithm
  ,                                       !- Zone Outside Convection Algorithm
  ,                                       !- Zone Conditioning Equipment List Name
  {84b345c4-df0c-4a0c-b6a6-1be5594fc855}, !- Zone Air Inlet Port List
  {9e48c1fe-c8e7-4dbe-8ca5-a0a01c23f073}, !- Zone Air Exhaust Port List
  {7a5def8b-6938-4742-a0ac-fcce08c8e210}, !- Zone Air Node Name
  ,                                       !- Zone Return Air Node Name
  ,                                       !- Primary Daylighting Control Name
  ,                                       !- Fraction of Zone Controlled by Primary Daylighting Control
  ,                                       !- Secondary Daylighting Control Name
  ,                                       !- Fraction of Zone Controlled by Secondary Daylighting Control
  ,                                       !- Illuminance Map Name
  ,                                       !- Group Rendering Name
  ,                                       !- Thermostat Name
  No;                                     !- Use Ideal Air Loads

OS:Node,
  {8c0b0a1e-da16-4dd2-bcc7-d2309fb1ecd3}, !- Handle
  Node 1,                                 !- Name
  {7a5def8b-6938-4742-a0ac-fcce08c8e210}, !- Inlet Port
  ;                                       !- Outlet Port

OS:Connection,
  {7a5def8b-6938-4742-a0ac-fcce08c8e210}, !- Handle
  {1c49fcec-a3c5-48bd-aaea-1ea6c51dd2d3}, !- Name
  {0059a268-70a9-4d27-96ca-e4d3d4e714ab}, !- Source Object
  11,                                     !- Outlet Port
  {8c0b0a1e-da16-4dd2-bcc7-d2309fb1ecd3}, !- Target Object
  2;                                      !- Inlet Port

OS:PortList,
  {84b345c4-df0c-4a0c-b6a6-1be5594fc855}, !- Handle
  Port List 1,                            !- Name
  {0059a268-70a9-4d27-96ca-e4d3d4e714ab}; !- HVAC Component

OS:PortList,
  {9e48c1fe-c8e7-4dbe-8ca5-a0a01c23f073}, !- Handle
  Port List 2,                            !- Name
  {0059a268-70a9-4d27-96ca-e4d3d4e714ab}; !- HVAC Component

OS:Sizing:Zone,
  {f88d6846-410b-4141-89a8-221c4ef60502}, !- Handle
  {0059a268-70a9-4d27-96ca-e4d3d4e714ab}, !- Zone or ZoneList Name
  SupplyAirTemperature,                   !- Zone Cooling Design Supply Air Temperature Input Method
  14,                                     !- Zone Cooling Design Supply Air Temperature {C}
  11.11,                                  !- Zone Cooling Design Supply Air Temperature Difference {deltaC}
  SupplyAirTemperature,                   !- Zone Heating Design Supply Air Temperature Input Method
  40,                                     !- Zone Heating Design Supply Air Temperature {C}
  11.11,                                  !- Zone Heating Design Supply Air Temperature Difference {deltaC}
  0.0085,                                 !- Zone Cooling Design Supply Air Humidity Ratio {kg-H2O/kg-air}
  0.008,                                  !- Zone Heating Design Supply Air Humidity Ratio {kg-H2O/kg-air}
  ,                                       !- Zone Heating Sizing Factor
  ,                                       !- Zone Cooling Sizing Factor
  DesignDay,                              !- Cooling Design Air Flow Method
  ,                                       !- Cooling Design Air Flow Rate {m3/s}
  ,                                       !- Cooling Minimum Air Flow per Zone Floor Area {m3/s-m2}
  ,                                       !- Cooling Minimum Air Flow {m3/s}
  ,                                       !- Cooling Minimum Air Flow Fraction
  DesignDay,                              !- Heating Design Air Flow Method
  ,                                       !- Heating Design Air Flow Rate {m3/s}
  ,                                       !- Heating Maximum Air Flow per Zone Floor Area {m3/s-m2}
  ,                                       !- Heating Maximum Air Flow {m3/s}
  ,                                       !- Heating Maximum Air Flow Fraction
  ,                                       !- Design Zone Air Distribution Effectiveness in Cooling Mode
  ,                                       !- Design Zone Air Distribution Effectiveness in Heating Mode
  No,                                     !- Account for Dedicated Outdoor Air System
  NeutralSupplyAir,                       !- Dedicated Outdoor Air System Control Strategy
  autosize,                               !- Dedicated Outdoor Air Low Setpoint Temperature for Design {C}
  autosize;                               !- Dedicated Outdoor Air High Setpoint Temperature for Design {C}

OS:ZoneHVAC:EquipmentList,
  {478e8de1-3797-4ca7-908d-2d3a992cded6}, !- Handle
  Zone HVAC Equipment List 1,             !- Name
  {0059a268-70a9-4d27-96ca-e4d3d4e714ab}; !- Thermal Zone

