
OS:Version,
  {ff5b537a-9375-4fa1-8bce-357652ef212d}, !- Handle
  1.12.2;                                 !- Version Identifier

OS:SpaceType,
  {d38dc42a-e62f-41a4-97ce-0c190c476274}, !- Handle
  189.1-2009 - Office - Lobby - CZ4-8,    !- Name
  ,                                       !- Default Construction Set Name
  {a5177e77-f825-45a6-bf0c-c4aa6d1e8714}, !- Default Schedule Set Name
  {f31dede1-50ec-401d-b428-c415ba32a20e}, !- Group Rendering Name
  {d4c3c77f-f4db-423c-84df-8f4847d07638}, !- Design Specification Outdoor Air Object Name
  Office,                                 !- Standards Building Type
  Lobby;                                  !- Standards Space Type

OS:DefaultScheduleSet,
  {a5177e77-f825-45a6-bf0c-c4aa6d1e8714}, !- Handle
  189.1-2009 - Office - Lobby - CZ4-8 Schedule Set, !- Name
  ,                                       !- Hours of Operation Schedule Name
  {0e4223ed-428a-4697-92e2-575484984317}, !- Number of People Schedule Name
  {8ed52672-8105-4f46-8f2c-57407b6379f9}, !- People Activity Level Schedule Name
  {39d9e5b2-6ff2-417b-82c6-036a3de43ccf}, !- Lighting Schedule Name
  {40d687d6-7427-43e0-9ef4-1eb4fcf9ffe1}, !- Electric Equipment Schedule Name
  ,                                       !- Gas Equipment Schedule Name
  ,                                       !- Hot Water Equipment Schedule Name
  {3af24f54-c570-4930-8974-1a6e047037b6}, !- Infiltration Schedule Name
  ,                                       !- Steam Equipment Schedule Name
  ;                                       !- Other Equipment Schedule Name

OS:Rendering:Color,
  {f31dede1-50ec-401d-b428-c415ba32a20e}, !- Handle
  Rendering Color 23,                     !- Name
  230,                                    !- Rendering Red Value
  157,                                    !- Rendering Green Value
  120;                                    !- Rendering Blue Value

OS:DesignSpecification:OutdoorAir,
  {d4c3c77f-f4db-423c-84df-8f4847d07638}, !- Handle
  189.1-2009 - Office - Lobby - CZ4-8 Ventilation, !- Name
  Sum,                                    !- Outdoor Air Method
  0.007079211648,                         !- Outdoor Air Flow per Person {m3/s-person}
  ,                                       !- Outdoor Air Flow per Floor Area {m3/s-m2}
  ,                                       !- Outdoor Air Flow Rate {m3/s}
  ,                                       !- Outdoor Air Flow Air Changes per Hour {1/hr}
  ;                                       !- Outdoor Air Flow Rate Fraction Schedule Name

OS:Schedule:Ruleset,
  {0e4223ed-428a-4697-92e2-575484984317}, ! Handle
  Office Misc Occ,                        ! Name
  {82eea4e9-c538-4001-9ab8-98ccb592ffb1}, ! Schedule Type Limits Name
  {18d6d1d8-4c13-4817-9442-6002036de1f1}, ! Default Day Schedule Name
  {acfe5d44-1762-4899-961f-72d42791a1c1}, ! Summer Design Day Schedule Name
  {d2fbc99d-17b9-487c-8d5e-f374d66d6c46}; ! Winter Design Day Schedule Name

OS:Schedule:Day,
  {18d6d1d8-4c13-4817-9442-6002036de1f1}, ! Handle
  Office Bldg Occ Default Schedule 1,     ! Name
  {82eea4e9-c538-4001-9ab8-98ccb592ffb1}, ! Schedule Type Limits Name
  ,                                       ! Interpolate to Timestep
  6,                                      !- Hour 1
  0,                                      !- Minute 1
  0,                                      !- Value Until Time 1
  7,                                      !- Hour 2
  0,                                      !- Minute 2
  0.100000001490116,                      !- Value Until Time 2
  8,                                      !- Hour 3
  0,                                      !- Minute 3
  0.200000002980232,                      !- Value Until Time 3
  20,                                     !- Hour 4
  0,                                      !- Minute 4
  0.400000005960464,                      !- Value Until Time 4
  22,                                     !- Hour 5
  0,                                      !- Minute 5
  0.100000001490116,                      !- Value Until Time 5
  24,                                     !- Hour 6
  0,                                      !- Minute 6
  0.0500000007450581;                     !- Value Until Time 6

OS:Schedule:Day,
  {acfe5d44-1762-4899-961f-72d42791a1c1}, ! Handle
  Office Bldg Occ Summer Design Day 1,    ! Name
  {82eea4e9-c538-4001-9ab8-98ccb592ffb1}, ! Schedule Type Limits Name
  ,                                       ! Interpolate to Timestep
  6,                                      ! Hour 1
  0,                                      ! Minute 1
  0,                                      ! Value Until Time 1
  22,                                     ! Hour 2
  0,                                      ! Minute 2
  1,                                      ! Value Until Time 2
  24,                                     ! Hour 3
  0,                                      ! Minute 3
  0.050000000000000003;                   ! Value Until Time 3

OS:Schedule:Day,
  {d2fbc99d-17b9-487c-8d5e-f374d66d6c46}, ! Handle
  Office Bldg Occ Winter Design Day 1,    ! Name
  {82eea4e9-c538-4001-9ab8-98ccb592ffb1}, ! Schedule Type Limits Name
  ,                                       ! Interpolate to Timestep
  24,                                     ! Hour 1
  0,                                      ! Minute 1
  0;                                      ! Value Until Time 1

OS:Schedule:Rule,
  {79fb4af6-e87f-4568-87d1-6c72c58c80cd}, ! Handle
  Office Misc Occ Rule 1,                 ! Name
  {0e4223ed-428a-4697-92e2-575484984317}, ! Schedule Ruleset Name
  0,                                      ! Rule Order
  {59d8c6e0-8688-496b-a442-0cc72e8244fd}, ! Day Schedule Name
  Yes,                                    ! Apply Sunday
  No,                                     ! Apply Monday
  No,                                     ! Apply Tuesday
  No,                                     ! Apply Wednesday
  No,                                     ! Apply Thursday
  No,                                     ! Apply Friday
  No,                                     ! Apply Saturday
  ,                                       ! Apply Holiday
  DateRange,                              ! Date Specification Type
  1,                                      ! Start Month
  1,                                      ! Start Day
  12,                                     ! End Month
  31;                                     ! End Day

OS:Schedule:Rule,
  {356ecb7b-7b6a-48f9-92c4-115335de07c6}, ! Handle
  Office Misc Occ Rule 2,                 ! Name
  {0e4223ed-428a-4697-92e2-575484984317}, ! Schedule Ruleset Name
  1,                                      ! Rule Order
  {34cb5d0b-91ea-4479-9003-24670e6ac457}, ! Day Schedule Name
  No,                                     ! Apply Sunday
  No,                                     ! Apply Monday
  No,                                     ! Apply Tuesday
  No,                                     ! Apply Wednesday
  No,                                     ! Apply Thursday
  No,                                     ! Apply Friday
  Yes,                                    ! Apply Saturday
  ,                                       ! Apply Holiday
  DateRange,                              ! Date Specification Type
  1,                                      ! Start Month
  1,                                      ! Start Day
  12,                                     ! End Month
  31;                                     ! End Day

OS:Schedule:Day,
  {59d8c6e0-8688-496b-a442-0cc72e8244fd}, ! Handle
  Office Bldg Occ Rule 1 Day Schedule 1,  ! Name
  {82eea4e9-c538-4001-9ab8-98ccb592ffb1}, ! Schedule Type Limits Name
  ,                                       ! Interpolate to Timestep
  24,                                     ! Hour 1
  0,                                      ! Minute 1
  0;                                      ! Value Until Time 1

OS:Schedule:Day,
  {34cb5d0b-91ea-4479-9003-24670e6ac457}, ! Handle
  Office Bldg Occ Rule 2 Day Schedule 1,  ! Name
  {82eea4e9-c538-4001-9ab8-98ccb592ffb1}, ! Schedule Type Limits Name
  ,                                       ! Interpolate to Timestep
  6,                                      !- Hour 1
  0,                                      !- Minute 1
  0,                                      !- Value Until Time 1
  8,                                      !- Hour 2
  0,                                      !- Minute 2
  0.100000001490116,                      !- Value Until Time 2
  14,                                     !- Hour 3
  0,                                      !- Minute 3
  0.25,                                   !- Value Until Time 3
  17,                                     !- Hour 4
  0,                                      !- Minute 4
  0.100000001490116,                      !- Value Until Time 4
  24,                                     !- Hour 5
  0,                                      !- Minute 5
  0;                                      !- Value Until Time 5

OS:Schedule:Ruleset,
  {8ed52672-8105-4f46-8f2c-57407b6379f9}, ! Handle
  Office Activity,                        ! Name
  {74eec01a-31f1-4aad-8a29-0459408f38cf}, ! Schedule Type Limits Name
  {c678b7a0-07f2-4493-a443-e0d49cbb4002}, ! Default Day Schedule Name
  {8d8ae345-9177-4d08-bf25-3da99d44bfe2}, ! Summer Design Day Schedule Name
  {02c871b5-5a00-4138-984f-3d86b3d7fa0e}; ! Winter Design Day Schedule Name

OS:Schedule:Day,
  {c678b7a0-07f2-4493-a443-e0d49cbb4002}, ! Handle
  Office Activity Default Schedule,       ! Name
  {74eec01a-31f1-4aad-8a29-0459408f38cf}, ! Schedule Type Limits Name
  ,                                       ! Interpolate to Timestep
  24,                                     !- Hour 1
  0,                                      !- Minute 1
  132;                                    !- Value Until Time 1

OS:Schedule:Day,
  {8d8ae345-9177-4d08-bf25-3da99d44bfe2}, ! Handle
  Office Activity Summer Design Day,      ! Name
  {74eec01a-31f1-4aad-8a29-0459408f38cf}, ! Schedule Type Limits Name
  ,                                       ! Interpolate to Timestep
  24,                                     !- Hour 1
  0,                                      !- Minute 1
  132;                                    !- Value Until Time 1

OS:Schedule:Day,
  {02c871b5-5a00-4138-984f-3d86b3d7fa0e}, ! Handle
  Office Activity Winter Design Day,      ! Name
  {74eec01a-31f1-4aad-8a29-0459408f38cf}, ! Schedule Type Limits Name
  ,                                       ! Interpolate to Timestep
  24,                                     !- Hour 1
  0,                                      !- Minute 1
  132;                                    !- Value Until Time 1

OS:Schedule:Ruleset,
  {39d9e5b2-6ff2-417b-82c6-036a3de43ccf}, ! Handle
  Office Bldg Light,                      ! Name
  {82eea4e9-c538-4001-9ab8-98ccb592ffb1}, ! Schedule Type Limits Name
  {7e356590-6557-4ac8-a78f-b2d8f9a2c52a}, ! Default Day Schedule Name
  {7af760cc-6e3b-49b7-83a6-fcb29d61dcff}, ! Summer Design Day Schedule Name
  {de8cbbec-ac4a-4621-a94a-51a42a6457bf}; ! Winter Design Day Schedule Name

OS:Schedule:Day,
  {7e356590-6557-4ac8-a78f-b2d8f9a2c52a}, ! Handle
  Office Bldg Light Default Schedule,     ! Name
  {82eea4e9-c538-4001-9ab8-98ccb592ffb1}, ! Schedule Type Limits Name
  ,                                       ! Interpolate to Timestep
  5,                                      !- Hour 1
  0,                                      !- Minute 1
  0.05,                                   !- Value Until Time 1
  7,                                      !- Hour 2
  0,                                      !- Minute 2
  0.1,                                    !- Value Until Time 2
  8,                                      !- Hour 3
  0,                                      !- Minute 3
  0.3,                                    !- Value Until Time 3
  17,                                     !- Hour 4
  0,                                      !- Minute 4
  0.9,                                    !- Value Until Time 4
  18,                                     !- Hour 5
  0,                                      !- Minute 5
  0.7,                                    !- Value Until Time 5
  20,                                     !- Hour 6
  0,                                      !- Minute 6
  0.5,                                    !- Value Until Time 6
  22,                                     !- Hour 7
  0,                                      !- Minute 7
  0.3,                                    !- Value Until Time 7
  23,                                     !- Hour 8
  0,                                      !- Minute 8
  0.1,                                    !- Value Until Time 8
  24,                                     !- Hour 9
  0,                                      !- Minute 9
  0.05;                                   !- Value Until Time 9

OS:Schedule:Day,
  {7af760cc-6e3b-49b7-83a6-fcb29d61dcff}, ! Handle
  Office Bldg Light Summer Design Day,    ! Name
  {82eea4e9-c538-4001-9ab8-98ccb592ffb1}, ! Schedule Type Limits Name
  ,                                       ! Interpolate to Timestep
  24,                                     ! Hour 1
  0,                                      ! Minute 1
  1;                                      ! Value Until Time 1

OS:Schedule:Day,
  {de8cbbec-ac4a-4621-a94a-51a42a6457bf}, ! Handle
  Office Bldg Light Winter Design Day,    ! Name
  {82eea4e9-c538-4001-9ab8-98ccb592ffb1}, ! Schedule Type Limits Name
  ,                                       ! Interpolate to Timestep
  24,                                     ! Hour 1
  0,                                      ! Minute 1
  0;                                      ! Value Until Time 1

OS:Schedule:Rule,
  {c0dce833-76c2-4ca6-bc0a-463354d89019}, ! Handle
  Office Bldg Light Rule 1,               ! Name
  {39d9e5b2-6ff2-417b-82c6-036a3de43ccf}, ! Schedule Ruleset Name
  0,                                      ! Rule Order
  {c3030537-9a74-4c63-b6dc-8a43c8100da3}, ! Day Schedule Name
  Yes,                                    ! Apply Sunday
  No,                                     ! Apply Monday
  No,                                     ! Apply Tuesday
  No,                                     ! Apply Wednesday
  No,                                     ! Apply Thursday
  No,                                     ! Apply Friday
  No,                                     ! Apply Saturday
  ,                                       ! Apply Holiday
  DateRange,                              ! Date Specification Type
  1,                                      ! Start Month
  1,                                      ! Start Day
  12,                                     ! End Month
  31;                                     ! End Day

OS:Schedule:Rule,
  {03a4540b-49a7-469d-ab5d-ba6c26300b5c}, ! Handle
  Office Bldg Light Rule 2,               ! Name
  {39d9e5b2-6ff2-417b-82c6-036a3de43ccf}, ! Schedule Ruleset Name
  1,                                      ! Rule Order
  {13e86f12-79eb-404f-9010-fbf010ec7172}, ! Day Schedule Name
  No,                                     ! Apply Sunday
  No,                                     ! Apply Monday
  No,                                     ! Apply Tuesday
  No,                                     ! Apply Wednesday
  No,                                     ! Apply Thursday
  No,                                     ! Apply Friday
  Yes,                                    ! Apply Saturday
  ,                                       ! Apply Holiday
  DateRange,                              ! Date Specification Type
  1,                                      ! Start Month
  1,                                      ! Start Day
  12,                                     ! End Month
  31;                                     ! End Day

OS:Schedule:Day,
  {c3030537-9a74-4c63-b6dc-8a43c8100da3}, ! Handle
  Office Bldg Light Rule 1 Day Schedule,  ! Name
  {82eea4e9-c538-4001-9ab8-98ccb592ffb1}, ! Schedule Type Limits Name
  ,                                       ! Interpolate to Timestep
  24,                                     ! Hour 1
  0,                                      ! Minute 1
  0.050000000000000003;                   ! Value Until Time 1

OS:Schedule:Day,
  {13e86f12-79eb-404f-9010-fbf010ec7172}, ! Handle
  Office Bldg Light Rule 2 Day Schedule,  ! Name
  {82eea4e9-c538-4001-9ab8-98ccb592ffb1}, ! Schedule Type Limits Name
  ,                                       ! Interpolate to Timestep
  6,                                      ! Hour 1
  0,                                      ! Minute 1
  0.050000000000000003,                   ! Value Until Time 1
  8,                                      ! Hour 2
  0,                                      ! Minute 2
  0.10000000000000001,                    ! Value Until Time 2
  14,                                     ! Hour 3
  0,                                      ! Minute 3
  0.5,                                    ! Value Until Time 3
  17,                                     ! Hour 4
  0,                                      ! Minute 4
  0.14999999999999999,                    ! Value Until Time 4
  24,                                     ! Hour 5
  0,                                      ! Minute 5
  0.050000000000000003;                   ! Value Until Time 5

OS:Schedule:Ruleset,
  {40d687d6-7427-43e0-9ef4-1eb4fcf9ffe1}, ! Handle
  Office Bldg Equip,                      ! Name
  {82eea4e9-c538-4001-9ab8-98ccb592ffb1}, ! Schedule Type Limits Name
  {38240bcb-63ce-4638-ad55-b95e5244f34b}, ! Default Day Schedule Name
  {6ffb95b4-eefa-4880-b037-97b2865c7f02}, ! Summer Design Day Schedule Name
  {6896fee9-34de-4f05-9945-1d213cb2417a}; ! Winter Design Day Schedule Name

OS:Schedule:Day,
  {38240bcb-63ce-4638-ad55-b95e5244f34b}, ! Handle
  Office Bldg Equip Default Schedule,     ! Name
  {82eea4e9-c538-4001-9ab8-98ccb592ffb1}, ! Schedule Type Limits Name
  ,                                       ! Interpolate to Timestep
  8,                                      !- Hour 1
  0,                                      !- Minute 1
  0.4,                                    !- Value Until Time 1
  12,                                     !- Hour 2
  0,                                      !- Minute 2
  0.9,                                    !- Value Until Time 2
  13,                                     !- Hour 3
  0,                                      !- Minute 3
  0.8,                                    !- Value Until Time 3
  17,                                     !- Hour 4
  0,                                      !- Minute 4
  0.9,                                    !- Value Until Time 4
  18,                                     !- Hour 5
  0,                                      !- Minute 5
  0.8,                                    !- Value Until Time 5
  20,                                     !- Hour 6
  0,                                      !- Minute 6
  0.6,                                    !- Value Until Time 6
  22,                                     !- Hour 7
  0,                                      !- Minute 7
  0.5,                                    !- Value Until Time 7
  24,                                     !- Hour 8
  0,                                      !- Minute 8
  0.4;                                    !- Value Until Time 8

OS:Schedule:Day,
  {6ffb95b4-eefa-4880-b037-97b2865c7f02}, ! Handle
  Office Bldg Equip Summer Design Day,    ! Name
  {82eea4e9-c538-4001-9ab8-98ccb592ffb1}, ! Schedule Type Limits Name
  ,                                       ! Interpolate to Timestep
  24,                                     ! Hour 1
  0,                                      ! Minute 1
  1;                                      ! Value Until Time 1

OS:Schedule:Day,
  {6896fee9-34de-4f05-9945-1d213cb2417a}, ! Handle
  Office Bldg Equip Winter Design Day,    ! Name
  {82eea4e9-c538-4001-9ab8-98ccb592ffb1}, ! Schedule Type Limits Name
  ,                                       ! Interpolate to Timestep
  24,                                     ! Hour 1
  0,                                      ! Minute 1
  0;                                      ! Value Until Time 1

OS:Schedule:Rule,
  {5d16f0fd-2489-4251-a89d-402b839f4fc1}, ! Handle
  Office Bldg Equip Rule 1,               ! Name
  {40d687d6-7427-43e0-9ef4-1eb4fcf9ffe1}, ! Schedule Ruleset Name
  0,                                      ! Rule Order
  {5af8efe2-1e8f-428e-a57c-c5bc01238160}, ! Day Schedule Name
  Yes,                                    ! Apply Sunday
  No,                                     ! Apply Monday
  No,                                     ! Apply Tuesday
  No,                                     ! Apply Wednesday
  No,                                     ! Apply Thursday
  No,                                     ! Apply Friday
  No,                                     ! Apply Saturday
  ,                                       ! Apply Holiday
  DateRange,                              ! Date Specification Type
  1,                                      ! Start Month
  1,                                      ! Start Day
  12,                                     ! End Month
  31;                                     ! End Day

OS:Schedule:Rule,
  {74ecf190-f3f3-46a6-8655-675c34529884}, ! Handle
  Office Bldg Equip Rule 2,               ! Name
  {40d687d6-7427-43e0-9ef4-1eb4fcf9ffe1}, ! Schedule Ruleset Name
  1,                                      ! Rule Order
  {4eefda3a-0b37-4fef-b9a7-993eda3b4272}, ! Day Schedule Name
  No,                                     ! Apply Sunday
  No,                                     ! Apply Monday
  No,                                     ! Apply Tuesday
  No,                                     ! Apply Wednesday
  No,                                     ! Apply Thursday
  No,                                     ! Apply Friday
  Yes,                                    ! Apply Saturday
  ,                                       ! Apply Holiday
  DateRange,                              ! Date Specification Type
  1,                                      ! Start Month
  1,                                      ! Start Day
  12,                                     ! End Month
  31;                                     ! End Day

OS:Schedule:Day,
  {5af8efe2-1e8f-428e-a57c-c5bc01238160}, ! Handle
  Office Bldg Equip Rule 1 Day Schedule,  ! Name
  {82eea4e9-c538-4001-9ab8-98ccb592ffb1}, ! Schedule Type Limits Name
  ,                                       ! Interpolate to Timestep
  24,                                     ! Hour 1
  0,                                      ! Minute 1
  0.29999999999999999;                    ! Value Until Time 1

OS:Schedule:Day,
  {4eefda3a-0b37-4fef-b9a7-993eda3b4272}, ! Handle
  Office Bldg Equip Rule 2 Day Schedule,  ! Name
  {82eea4e9-c538-4001-9ab8-98ccb592ffb1}, ! Schedule Type Limits Name
  ,                                       ! Interpolate to Timestep
  6,                                      ! Hour 1
  0,                                      ! Minute 1
  0.29999999999999999,                    ! Value Until Time 1
  8,                                      ! Hour 2
  0,                                      ! Minute 2
  0.40000000000000002,                    ! Value Until Time 2
  14,                                     ! Hour 3
  0,                                      ! Minute 3
  0.5,                                    ! Value Until Time 3
  17,                                     ! Hour 4
  0,                                      ! Minute 4
  0.34999999999999998,                    ! Value Until Time 4
  24,                                     ! Hour 5
  0,                                      ! Minute 5
  0.29999999999999999;                    ! Value Until Time 5

OS:Schedule:Ruleset,
  {3af24f54-c570-4930-8974-1a6e047037b6}, ! Handle
  Office Infil Quarter On,                ! Name
  {82eea4e9-c538-4001-9ab8-98ccb592ffb1}, ! Schedule Type Limits Name
  {3e299eac-c841-4912-a159-8f88c8d83951}, ! Default Day Schedule Name
  {888a9716-0999-4dd2-a25a-c81c919dbce0}, ! Summer Design Day Schedule Name
  {68095b05-a9a8-47d5-9992-8991a96cfc3c}; ! Winter Design Day Schedule Name

OS:Schedule:Day,
  {3e299eac-c841-4912-a159-8f88c8d83951}, ! Handle
  Office Infil Quarter On Default Schedule, ! Name
  {82eea4e9-c538-4001-9ab8-98ccb592ffb1}, ! Schedule Type Limits Name
  ,                                       ! Interpolate to Timestep
  6,                                      !- Hour 1
  0,                                      !- Minute 1
  1,                                      !- Value Until Time 1
  22,                                     !- Hour 2
  0,                                      !- Minute 2
  0.25,                                   !- Value Until Time 2
  24,                                     !- Hour 3
  0,                                      !- Minute 3
  1;                                      !- Value Until Time 3

OS:Schedule:Day,
  {888a9716-0999-4dd2-a25a-c81c919dbce0}, ! Handle
  Office Infil Quarter On Summer Design Day, ! Name
  {82eea4e9-c538-4001-9ab8-98ccb592ffb1}, ! Schedule Type Limits Name
  ,                                       ! Interpolate to Timestep
  6,                                      ! Hour 1
  0,                                      ! Minute 1
  1,                                      ! Value Until Time 1
  22,                                     ! Hour 2
  0,                                      ! Minute 2
  0.25,                                   ! Value Until Time 2
  24,                                     ! Hour 3
  0,                                      ! Minute 3
  1;                                      ! Value Until Time 3

OS:Schedule:Day,
  {68095b05-a9a8-47d5-9992-8991a96cfc3c}, ! Handle
  Office Infil Quarter On Winter Design Day, ! Name
  {82eea4e9-c538-4001-9ab8-98ccb592ffb1}, ! Schedule Type Limits Name
  ,                                       ! Interpolate to Timestep
  6,                                      ! Hour 1
  0,                                      ! Minute 1
  1,                                      ! Value Until Time 1
  18,                                     ! Hour 2
  0,                                      ! Minute 2
  0.25,                                   ! Value Until Time 2
  24,                                     ! Hour 3
  0,                                      ! Minute 3
  1;                                      ! Value Until Time 3

OS:Schedule:Rule,
  {778d27d3-3f7c-4f77-b0bd-b53156e5e6bb}, ! Handle
  Office Infil Quarter On Rule 1,         ! Name
  {3af24f54-c570-4930-8974-1a6e047037b6}, ! Schedule Ruleset Name
  0,                                      ! Rule Order
  {5028672d-942a-42ba-a7ee-ece509ea9846}, ! Day Schedule Name
  Yes,                                    ! Apply Sunday
  No,                                     ! Apply Monday
  No,                                     ! Apply Tuesday
  No,                                     ! Apply Wednesday
  No,                                     ! Apply Thursday
  No,                                     ! Apply Friday
  No,                                     ! Apply Saturday
  ,                                       ! Apply Holiday
  DateRange,                              ! Date Specification Type
  1,                                      ! Start Month
  1,                                      ! Start Day
  12,                                     ! End Month
  31;                                     ! End Day

OS:Schedule:Rule,
  {3f66d550-e4cf-47e7-ae5a-41ffbd1b3091}, ! Handle
  Office Infil Quarter On Rule 2,         ! Name
  {3af24f54-c570-4930-8974-1a6e047037b6}, ! Schedule Ruleset Name
  1,                                      ! Rule Order
  {59d3a0ea-d34e-4000-965b-4214941d6e89}, ! Day Schedule Name
  No,                                     ! Apply Sunday
  No,                                     ! Apply Monday
  No,                                     ! Apply Tuesday
  No,                                     ! Apply Wednesday
  No,                                     ! Apply Thursday
  No,                                     ! Apply Friday
  Yes,                                    ! Apply Saturday
  ,                                       ! Apply Holiday
  DateRange,                              ! Date Specification Type
  1,                                      ! Start Month
  1,                                      ! Start Day
  12,                                     ! End Month
  31;                                     ! End Day

OS:Schedule:Day,
  {5028672d-942a-42ba-a7ee-ece509ea9846}, ! Handle
  Office Infil Quarter On Rule 1 Day Schedule, ! Name
  {82eea4e9-c538-4001-9ab8-98ccb592ffb1}, ! Schedule Type Limits Name
  ,                                       ! Interpolate to Timestep
  24,                                     ! Hour 1
  0,                                      ! Minute 1
  1;                                      ! Value Until Time 1

OS:Schedule:Day,
  {59d3a0ea-d34e-4000-965b-4214941d6e89}, ! Handle
  Office Infil Quarter On Rule 2 Day Schedule, ! Name
  {82eea4e9-c538-4001-9ab8-98ccb592ffb1}, ! Schedule Type Limits Name
  ,                                       ! Interpolate to Timestep
  6,                                      ! Hour 1
  0,                                      ! Minute 1
  1,                                      ! Value Until Time 1
  18,                                     ! Hour 2
  0,                                      ! Minute 2
  0.25,                                   ! Value Until Time 2
  24,                                     ! Hour 3
  0,                                      ! Minute 3
  1;                                      ! Value Until Time 3

OS:ScheduleTypeLimits,
  {82eea4e9-c538-4001-9ab8-98ccb592ffb1}, ! Handle
  Fraction,                               ! Name