
OS:Version,
  {f2c8b08f-cb4a-4e58-b878-db758aaaadab}, !- Handle
  1.9.0;                                  !- Version Identifier

OS:Facility,
  {e2da3c27-edba-47a0-b552-968caef8dc31}; !- Handle

OS:Building,
  {ea92c6c3-c6e6-4e1f-a187-1b867ad55225}, !- Handle
  Building 1,                             !- Name
  ,                                       !- Building Sector Type
  ,                                       !- North Axis {deg}
  ,                                       !- Nominal Floor to Floor Height {m}
  ,                                       !- Space Type Name
  ,                                       !- Default Construction Set Name
  ;                                       !- Default Schedule Set Name

OS:BuildingStory,
  {c943d6e9-722d-46dc-bdc3-12e1e5b545ed}, !- Handle
  Level 1,                                !- Name
  ,                                       !- Nominal Z Coordinate {m}
  ,                                       !- Nominal Floor to Floor Height {m}
  ,                                       !- Default Construction Set Name
  ,                                       !- Default Schedule Set Name
  ;                                       !- Group Rendering Name

OS:BuildingStory,
  {d92d9012-ecf0-4477-8e0b-33bc4a263b5e}, !- Handle
  Level 2,                                !- Name
  ,                                       !- Nominal Z Coordinate {m}
  3.9624,                                 !- Nominal Floor to Floor Height {m}
  ,                                       !- Default Construction Set Name
  ,                                       !- Default Schedule Set Name
  ;                                       !- Group Rendering Name

OS:ShadingSurfaceGroup,
  {7ff98500-41a9-44bd-8e22-bf4d7c837072}, !- Handle
  Shading Surface Group 1,                !- Name
  Building;                               !- Shading Surface Type

OS:Space,
  {c3a85abc-4255-4c74-96b8-775e5b77b257}, !- Handle
  sp-1-Space,                             !- Name
  ,                                       !- Space Type Name
  ,                                       !- Default Construction Set Name
  ,                                       !- Default Schedule Set Name
  ,                                       !- Direction of Relative North {deg}
  ,                                       !- X Origin {m}
  ,                                       !- Y Origin {m}
  ,                                       !- Z Origin {m}
  {c943d6e9-722d-46dc-bdc3-12e1e5b545ed}, !- Building Story Name
  {cf7736ad-5a0b-4a85-9b02-aef0fa9877b0}; !- Thermal Zone Name

OS:Surface,
  {cafc409a-b0ca-4aa5-b09a-a451935ef455}, !- Handle
  Surface 1,                              !- Name
  Floor,                                  !- Surface Type
  ,                                       !- Construction Name
  {c3a85abc-4255-4c74-96b8-775e5b77b257}, !- Space Name
  Ground,                                 !- Outside Boundary Condition
  ,                                       !- Outside Boundary Condition Object
  NoSun,                                  !- Sun Exposure
  NoWind,                                 !- Wind Exposure
  ,                                       !- View Factor to Ground
  ,                                       !- Number of Vertices
  0, 0, 0,                                !- X,Y,Z Vertex 1 {m}
  0, 9.144, 0,                            !- X,Y,Z Vertex 2 {m}
  9.144, 9.144, 0,                        !- X,Y,Z Vertex 3 {m}
  9.144, 0, 0;                            !- X,Y,Z Vertex 4 {m}

OS:Surface,
  {8755635b-f48d-4a66-9f5b-402da04f0c4a}, !- Handle
  Surface 2,                              !- Name
  Wall,                                   !- Surface Type
  ,                                       !- Construction Name
  {c3a85abc-4255-4c74-96b8-775e5b77b257}, !- Space Name
  Outdoors,                               !- Outside Boundary Condition
  ,                                       !- Outside Boundary Condition Object
  SunExposed,                             !- Sun Exposure
  WindExposed,                            !- Wind Exposure
  ,                                       !- View Factor to Ground
  ,                                       !- Number of Vertices
  0, 0, 0,                                !- X,Y,Z Vertex 1 {m}
  0, 0, 3.9624,                           !- X,Y,Z Vertex 2 {m}
  0, 9.144, 3.9624,                       !- X,Y,Z Vertex 3 {m}
  0, 9.144, 0;                            !- X,Y,Z Vertex 4 {m}

OS:SubSurface,
  {ec472234-8ad6-4e3e-85dd-71a9b740ce00}, !- Handle
  Sub Surface 1,                          !- Name
  FixedWindow,                            !- Sub Surface Type
  ,                                       !- Construction Name
  {8755635b-f48d-4a66-9f5b-402da04f0c4a}, !- Surface Name
  ,                                       !- Outside Boundary Condition Object
  ,                                       !- View Factor to Ground
  ,                                       !- Shading Control Name
  ,                                       !- Frame and Divider Name
  ,                                       !- Multiplier
  ,                                       !- Number of Vertices
  0, 7.52475, 0.9144,                     !- X,Y,Z Vertex 1 {m}
  0, 6.61035, 0.9144,                     !- X,Y,Z Vertex 2 {m}
  0, 6.61035, 2.1336,                     !- X,Y,Z Vertex 3 {m}
  0, 7.52475, 2.1336;                     !- X,Y,Z Vertex 4 {m}

OS:SubSurface,
  {ecf17ddd-5a41-4edf-8fce-56ac212261c7}, !- Handle
  Sub Surface 2,                          !- Name
  FixedWindow,                            !- Sub Surface Type
  ,                                       !- Construction Name
  {8755635b-f48d-4a66-9f5b-402da04f0c4a}, !- Surface Name
  ,                                       !- Outside Boundary Condition Object
  ,                                       !- View Factor to Ground
  ,                                       !- Shading Control Name
  ,                                       !- Frame and Divider Name
  ,                                       !- Multiplier
  ,                                       !- Number of Vertices
  0, 5.0292, 0.9144,                      !- X,Y,Z Vertex 1 {m}
  0, 4.1148, 0.9144,                      !- X,Y,Z Vertex 2 {m}
  0, 4.1148, 2.1336,                      !- X,Y,Z Vertex 3 {m}
  0, 5.0292, 2.1336;                      !- X,Y,Z Vertex 4 {m}

OS:SubSurface,
  {51c9b685-796c-4129-ad1d-14f5ffbf5cb5}, !- Handle
  Sub Surface 3,                          !- Name
  FixedWindow,                            !- Sub Surface Type
  ,                                       !- Construction Name
  {8755635b-f48d-4a66-9f5b-402da04f0c4a}, !- Surface Name
  ,                                       !- Outside Boundary Condition Object
  ,                                       !- View Factor to Ground
  ,                                       !- Shading Control Name
  ,                                       !- Frame and Divider Name
  ,                                       !- Multiplier
  ,                                       !- Number of Vertices
  0, 2.53365, 0.9144,                     !- X,Y,Z Vertex 1 {m}
  0, 1.61925, 0.9144,                     !- X,Y,Z Vertex 2 {m}
  0, 1.61925, 2.1336,                     !- X,Y,Z Vertex 3 {m}
  0, 2.53365, 2.1336;                     !- X,Y,Z Vertex 4 {m}

OS:Surface,
  {63160f25-98bf-44eb-b85f-309e76b6774a}, !- Handle
  Surface 3,                              !- Name
  RoofCeiling,                            !- Surface Type
  ,                                       !- Construction Name
  {c3a85abc-4255-4c74-96b8-775e5b77b257}, !- Space Name
  Outdoors,                               !- Outside Boundary Condition
  ,                                       !- Outside Boundary Condition Object
  SunExposed,                             !- Sun Exposure
  WindExposed,                            !- Wind Exposure
  ,                                       !- View Factor to Ground
  ,                                       !- Number of Vertices
  0, 0, 3.9624,                           !- X,Y,Z Vertex 1 {m}
  9.144, 0, 3.9624,                       !- X,Y,Z Vertex 2 {m}
  9.144, 9.144, 3.9624,                   !- X,Y,Z Vertex 3 {m}
  0, 9.144, 3.9624;                       !- X,Y,Z Vertex 4 {m}

OS:Surface,
  {99bc50ba-c678-4683-81d1-310afff7c20d}, !- Handle
  Surface 4,                              !- Name
  Wall,                                   !- Surface Type
  ,                                       !- Construction Name
  {c3a85abc-4255-4c74-96b8-775e5b77b257}, !- Space Name
  Outdoors,                               !- Outside Boundary Condition
  ,                                       !- Outside Boundary Condition Object
  SunExposed,                             !- Sun Exposure
  WindExposed,                            !- Wind Exposure
  ,                                       !- View Factor to Ground
  ,                                       !- Number of Vertices
  0, 9.144, 0,                            !- X,Y,Z Vertex 1 {m}
  0, 9.144, 3.9624,                       !- X,Y,Z Vertex 2 {m}
  9.144, 9.144, 3.9624,                   !- X,Y,Z Vertex 3 {m}
  9.144, 9.144, 0;                        !- X,Y,Z Vertex 4 {m}

OS:SubSurface,
  {c1b9da3e-3ba6-416e-8f11-bd2c9f32225f}, !- Handle
  Sub Surface 4,                          !- Name
  FixedWindow,                            !- Sub Surface Type
  ,                                       !- Construction Name
  {99bc50ba-c678-4683-81d1-310afff7c20d}, !- Surface Name
  ,                                       !- Outside Boundary Condition Object
  ,                                       !- View Factor to Ground
  ,                                       !- Shading Control Name
  ,                                       !- Frame and Divider Name
  ,                                       !- Multiplier
  ,                                       !- Number of Vertices
  7.534275, 9.144, 0.9144,                !- X,Y,Z Vertex 1 {m}
  6.619875, 9.144, 0.9144,                !- X,Y,Z Vertex 2 {m}
  6.619875, 9.144, 2.1336,                !- X,Y,Z Vertex 3 {m}
  7.534275, 9.144, 2.1336;                !- X,Y,Z Vertex 4 {m}

OS:SubSurface,
  {5f51961a-4731-4457-9fbf-9f2d5cf12554}, !- Handle
  Sub Surface 5,                          !- Name
  FixedWindow,                            !- Sub Surface Type
  ,                                       !- Construction Name
  {99bc50ba-c678-4683-81d1-310afff7c20d}, !- Surface Name
  ,                                       !- Outside Boundary Condition Object
  ,                                       !- View Factor to Ground
  ,                                       !- Shading Control Name
  ,                                       !- Frame and Divider Name
  ,                                       !- Multiplier
  ,                                       !- Number of Vertices
  5.04825, 9.144, 0.9144,                 !- X,Y,Z Vertex 1 {m}
  4.13385, 9.144, 0.9144,                 !- X,Y,Z Vertex 2 {m}
  4.13385, 9.144, 2.1336,                 !- X,Y,Z Vertex 3 {m}
  5.04825, 9.144, 2.1336;                 !- X,Y,Z Vertex 4 {m}

OS:SubSurface,
  {be3ac2b8-0b28-4916-9079-ec93398b62a3}, !- Handle
  Sub Surface 6,                          !- Name
  FixedWindow,                            !- Sub Surface Type
  ,                                       !- Construction Name
  {99bc50ba-c678-4683-81d1-310afff7c20d}, !- Surface Name
  ,                                       !- Outside Boundary Condition Object
  ,                                       !- View Factor to Ground
  ,                                       !- Shading Control Name
  ,                                       !- Frame and Divider Name
  ,                                       !- Multiplier
  ,                                       !- Number of Vertices
  2.562225, 9.144, 0.9144,                !- X,Y,Z Vertex 1 {m}
  1.647825, 9.144, 0.9144,                !- X,Y,Z Vertex 2 {m}
  1.647825, 9.144, 2.1336,                !- X,Y,Z Vertex 3 {m}
  2.562225, 9.144, 2.1336;                !- X,Y,Z Vertex 4 {m}

OS:Surface,
  {dc7340e5-0655-4571-aa00-b06cb3ce7abd}, !- Handle
  Surface 5,                              !- Name
  Wall,                                   !- Surface Type
  ,                                       !- Construction Name
  {c3a85abc-4255-4c74-96b8-775e5b77b257}, !- Space Name
  Outdoors,                               !- Outside Boundary Condition
  ,                                       !- Outside Boundary Condition Object
  SunExposed,                             !- Sun Exposure
  WindExposed,                            !- Wind Exposure
  ,                                       !- View Factor to Ground
  ,                                       !- Number of Vertices
  9.144, 9.144, 0,                        !- X,Y,Z Vertex 1 {m}
  9.144, 9.144, 3.9624,                   !- X,Y,Z Vertex 2 {m}
  9.144, 0, 3.9624,                       !- X,Y,Z Vertex 3 {m}
  9.144, 0, 0;                            !- X,Y,Z Vertex 4 {m}

OS:SubSurface,
  {cd7e9fd2-8016-48ae-a11e-6de2457ed1c5}, !- Handle
  Sub Surface 7,                          !- Name
  FixedWindow,                            !- Sub Surface Type
  ,                                       !- Construction Name
  {dc7340e5-0655-4571-aa00-b06cb3ce7abd}, !- Surface Name
  ,                                       !- Outside Boundary Condition Object
  ,                                       !- View Factor to Ground
  ,                                       !- Shading Control Name
  ,                                       !- Frame and Divider Name
  ,                                       !- Multiplier
  ,                                       !- Number of Vertices
  9.144, 1.6319501016, 0.9144,            !- X,Y,Z Vertex 1 {m}
  9.144, 2.5463501016, 0.9144,            !- X,Y,Z Vertex 2 {m}
  9.144, 2.5463501016, 2.1336,            !- X,Y,Z Vertex 3 {m}
  9.144, 1.6319501016, 2.1336;            !- X,Y,Z Vertex 4 {m}

OS:SubSurface,
  {1ce5f72d-7b54-4504-b9a7-db192d9388bd}, !- Handle
  Sub Surface 8,                          !- Name
  FixedWindow,                            !- Sub Surface Type
  ,                                       !- Construction Name
  {dc7340e5-0655-4571-aa00-b06cb3ce7abd}, !- Surface Name
  ,                                       !- Outside Boundary Condition Object
  ,                                       !- View Factor to Ground
  ,                                       !- Shading Control Name
  ,                                       !- Frame and Divider Name
  ,                                       !- Multiplier
  ,                                       !- Number of Vertices
  9.144, 4.1148, 0.9144,                  !- X,Y,Z Vertex 1 {m}
  9.144, 5.0292, 0.9144,                  !- X,Y,Z Vertex 2 {m}
  9.144, 5.0292, 2.1336,                  !- X,Y,Z Vertex 3 {m}
  9.144, 4.1148, 2.1336;                  !- X,Y,Z Vertex 4 {m}

OS:SubSurface,
  {b9db0bc2-d2e6-4a25-8610-6f5a5b802b4a}, !- Handle
  Sub Surface 9,                          !- Name
  FixedWindow,                            !- Sub Surface Type
  ,                                       !- Construction Name
  {dc7340e5-0655-4571-aa00-b06cb3ce7abd}, !- Surface Name
  ,                                       !- Outside Boundary Condition Object
  ,                                       !- View Factor to Ground
  ,                                       !- Shading Control Name
  ,                                       !- Frame and Divider Name
  ,                                       !- Multiplier
  ,                                       !- Number of Vertices
  9.144, 6.61035, 0.9144,                 !- X,Y,Z Vertex 1 {m}
  9.144, 7.52475, 0.9144,                 !- X,Y,Z Vertex 2 {m}
  9.144, 7.52475, 2.1336,                 !- X,Y,Z Vertex 3 {m}
  9.144, 6.61035, 2.1336;                 !- X,Y,Z Vertex 4 {m}

OS:Surface,
  {8779b6aa-42ea-47ae-8f80-934aec77ccf8}, !- Handle
  Surface 6,                              !- Name
  Wall,                                   !- Surface Type
  ,                                       !- Construction Name
  {c3a85abc-4255-4c74-96b8-775e5b77b257}, !- Space Name
  Outdoors,                               !- Outside Boundary Condition
  ,                                       !- Outside Boundary Condition Object
  SunExposed,                             !- Sun Exposure
  WindExposed,                            !- Wind Exposure
  ,                                       !- View Factor to Ground
  ,                                       !- Number of Vertices
  9.144, 0, 0,                            !- X,Y,Z Vertex 1 {m}
  9.144, 0, 3.9624,                       !- X,Y,Z Vertex 2 {m}
  0, 0, 3.9624,                           !- X,Y,Z Vertex 3 {m}
  0, 0, 0;                                !- X,Y,Z Vertex 4 {m}

OS:SubSurface,
  {49f44517-a792-4a03-98f9-6406249ea3d5}, !- Handle
  Sub Surface 10,                         !- Name
  FixedWindow,                            !- Sub Surface Type
  ,                                       !- Construction Name
  {8779b6aa-42ea-47ae-8f80-934aec77ccf8}, !- Surface Name
  ,                                       !- Outside Boundary Condition Object
  ,                                       !- View Factor to Ground
  ,                                       !- Shading Control Name
  ,                                       !- Frame and Divider Name
  ,                                       !- Multiplier
  ,                                       !- Number of Vertices
  1.666875, 0, 0.9144,                    !- X,Y,Z Vertex 1 {m}
  2.581275, 0, 0.9144,                    !- X,Y,Z Vertex 2 {m}
  2.581275, 0, 2.1336,                    !- X,Y,Z Vertex 3 {m}
  1.666875, 0, 2.1336;                    !- X,Y,Z Vertex 4 {m}

OS:ShadingSurface,
  {c2f89c7e-786d-4086-a95d-719ba3ac1b19}, !- Handle
  Shading Surface 1,                      !- Name
  ,                                       !- Construction Name
  {7ff98500-41a9-44bd-8e22-bf4d7c837072}, !- Shading Surface Group Name
  ,                                       !- Transmittance Schedule Name
  ,                                       !- Number of Vertices
  1.666875, 0, 1.49861016,                !- X,Y,Z Vertex 1 {m}
  1.666875, -0.4572, 1.49861016,          !- X,Y,Z Vertex 2 {m}
  2.581275, -0.4572, 1.49861016,          !- X,Y,Z Vertex 3 {m}
  2.581275, 0, 1.49861016;                !- X,Y,Z Vertex 4 {m}

OS:SubSurface,
  {01135136-87cc-4b52-8600-e4023d7855c3}, !- Handle
  Sub Surface 11,                         !- Name
  FixedWindow,                            !- Sub Surface Type
  ,                                       !- Construction Name
  {8779b6aa-42ea-47ae-8f80-934aec77ccf8}, !- Surface Name
  ,                                       !- Outside Boundary Condition Object
  ,                                       !- View Factor to Ground
  ,                                       !- Shading Control Name
  ,                                       !- Frame and Divider Name
  ,                                       !- Multiplier
  ,                                       !- Number of Vertices
  4.1529, 0, 0.9144,                      !- X,Y,Z Vertex 1 {m}
  5.0673, 0, 0.9144,                      !- X,Y,Z Vertex 2 {m}
  5.0673, 0, 2.1336,                      !- X,Y,Z Vertex 3 {m}
  4.1529, 0, 2.1336;                      !- X,Y,Z Vertex 4 {m}

OS:SubSurface,
  {a3e02d9b-5840-4400-a661-953cb83a86bb}, !- Handle
  Sub Surface 12,                         !- Name
  FixedWindow,                            !- Sub Surface Type
  ,                                       !- Construction Name
  {8779b6aa-42ea-47ae-8f80-934aec77ccf8}, !- Surface Name
  ,                                       !- Outside Boundary Condition Object
  ,                                       !- View Factor to Ground
  ,                                       !- Shading Control Name
  ,                                       !- Frame and Divider Name
  ,                                       !- Multiplier
  ,                                       !- Number of Vertices
  6.619875, 0, 0.9144,                    !- X,Y,Z Vertex 1 {m}
  7.534275, 0, 0.9144,                    !- X,Y,Z Vertex 2 {m}
  7.534275, 0, 2.1336,                    !- X,Y,Z Vertex 3 {m}
  6.619875, 0, 2.1336;                    !- X,Y,Z Vertex 4 {m}

OS:ThermalZone,
  {cf7736ad-5a0b-4a85-9b02-aef0fa9877b0}, !- Handle
  sp-1-Zone,                              !- Name
  ,                                       !- Multiplier
  ,                                       !- Ceiling Height {m}
  ,                                       !- Volume {m3}
  ,                                       !- Floor Area {m2}
  ,                                       !- Zone Inside Convection Algorithm
  ,                                       !- Zone Outside Convection Algorithm
  ,                                       !- Zone Conditioning Equipment List Name
  {92657b6d-64b1-4db2-9576-d09980b82232}, !- Zone Air Inlet Port List
  {a81687aa-8e5f-4e85-933d-badae8d86d10}, !- Zone Air Exhaust Port List
  {f5bbf57b-ecbc-4ed5-99a4-a80e2f699bc9}, !- Zone Air Node Name
  ,                                       !- Zone Return Air Node Name
  ,                                       !- Primary Daylighting Control Name
  ,                                       !- Fraction of Zone Controlled by Primary Daylighting Control
  ,                                       !- Secondary Daylighting Control Name
  ,                                       !- Fraction of Zone Controlled by Secondary Daylighting Control
  ,                                       !- Illuminance Map Name
  ,                                       !- Group Rendering Name
  ,                                       !- Thermostat Name
  No;                                     !- Use Ideal Air Loads

OS:Node,
  {e8d83369-b9fe-4052-ab54-f95201dfabcc}, !- Handle
  Node 1,                                 !- Name
  {f5bbf57b-ecbc-4ed5-99a4-a80e2f699bc9}, !- Inlet Port
  ;                                       !- Outlet Port

OS:Connection,
  {f5bbf57b-ecbc-4ed5-99a4-a80e2f699bc9}, !- Handle
  {98e3ae41-e67b-47c1-9c6f-7e019d97e19d}, !- Name
  {cf7736ad-5a0b-4a85-9b02-aef0fa9877b0}, !- Source Object
  11,                                     !- Outlet Port
  {e8d83369-b9fe-4052-ab54-f95201dfabcc}, !- Target Object
  2;                                      !- Inlet Port

OS:PortList,
  {92657b6d-64b1-4db2-9576-d09980b82232}, !- Handle
  Port List 1,                            !- Name
  {cf7736ad-5a0b-4a85-9b02-aef0fa9877b0}; !- HVAC Component

OS:PortList,
  {a81687aa-8e5f-4e85-933d-badae8d86d10}, !- Handle
  Port List 2,                            !- Name
  {cf7736ad-5a0b-4a85-9b02-aef0fa9877b0}; !- HVAC Component

OS:Sizing:Zone,
  {b214ac04-b372-44e7-b8a4-26f54793eab2}, !- Handle
  {cf7736ad-5a0b-4a85-9b02-aef0fa9877b0}, !- Zone or ZoneList Name
  14,                                     !- Zone Cooling Design Supply Air Temperature {C}
  40,                                     !- Zone Heating Design Supply Air Temperature {C}
  0.0085,                                 !- Zone Cooling Design Supply Air Humidity Ratio {kg-H2O/kg-air}
  0.008,                                  !- Zone Heating Design Supply Air Humidity Ratio {kg-H2O/kg-air}
  ,                                       !- Zone Heating Sizing Factor
  ,                                       !- Zone Cooling Sizing Factor
  DesignDay,                              !- Cooling Design Air Flow Method
  ,                                       !- Cooling Design Air Flow Rate {m3/s}
  ,                                       !- Cooling Minimum Air Flow per Zone Floor Area {m3/s-m2}
  ,                                       !- Cooling Minimum Air Flow {m3/s}
  ,                                       !- Cooling Minimum Air Flow Fraction
  DesignDay,                              !- Heating Design Air Flow Method
  ,                                       !- Heating Design Air Flow Rate {m3/s}
  ,                                       !- Heating Maximum Air Flow per Zone Floor Area {m3/s-m2}
  ,                                       !- Heating Maximum Air Flow {m3/s}
  ,                                       !- Heating Maximum Air Flow Fraction
  ,                                       !- Design Zone Air Distribution Effectiveness in Cooling Mode
  ;                                       !- Design Zone Air Distribution Effectiveness in Heating Mode

OS:ZoneHVAC:EquipmentList,
  {25700bf7-6ea3-416a-bc24-cf60e8063b26}, !- Handle
  Zone HVAC Equipment List 1,             !- Name
  {cf7736ad-5a0b-4a85-9b02-aef0fa9877b0}; !- Thermal Zone

