
OS:Version,
  {cc247f47-b7ee-4e46-9904-457ef203504b}, !- Handle
  1.9.0;                                  !- Version Identifier

OS:Facility,
  {e9b1788d-0183-4486-b091-f43aa309c5fb}; !- Handle

OS:Building,
  {648a1220-0e09-47d5-bedf-548099d05942}, !- Handle
  Building 1,                             !- Name
  ,                                       !- Building Sector Type
  ,                                       !- North Axis {deg}
  ,                                       !- Nominal Floor to Floor Height {m}
  ,                                       !- Space Type Name
  ,                                       !- Default Construction Set Name
  ;                                       !- Default Schedule Set Name

OS:BuildingStory,
  {0161c4c0-389d-4e06-8a8d-591b249bd717}, !- Handle
  Level 1,                                !- Name
  ,                                       !- Nominal Z Coordinate {m}
  ,                                       !- Nominal Floor to Floor Height {m}
  ,                                       !- Default Construction Set Name
  ,                                       !- Default Schedule Set Name
  ;                                       !- Group Rendering Name

OS:BuildingStory,
  {79ca98c5-7bd5-4f00-a6dd-bc03f9deada4}, !- Handle
  Level 1 Plenum,                         !- Name
  ,                                       !- Nominal Z Coordinate {m}
  3.048,                                  !- Nominal Floor to Floor Height {m}
  ,                                       !- Default Construction Set Name
  ,                                       !- Default Schedule Set Name
  ;                                       !- Group Rendering Name

OS:BuildingStory,
  {6abd7435-453f-40fe-934c-725aed662cd1}, !- Handle
  Level 2,                                !- Name
  ,                                       !- Nominal Z Coordinate {m}
  3.9624,                                 !- Nominal Floor to Floor Height {m}
  ,                                       !- Default Construction Set Name
  ,                                       !- Default Schedule Set Name
  ;                                       !- Group Rendering Name

OS:BuildingStory,
  {4d7c80fe-0a64-4300-b000-359317187db5}, !- Handle
  Level 2 Plenum,                         !- Name
  ,                                       !- Nominal Z Coordinate {m}
  7.0104,                                 !- Nominal Floor to Floor Height {m}
  ,                                       !- Default Construction Set Name
  ,                                       !- Default Schedule Set Name
  ;                                       !- Group Rendering Name

OS:BuildingStory,
  {3cc47281-edef-43d0-a570-c8213b8fd1d4}, !- Handle
  Level 3,                                !- Name
  ,                                       !- Nominal Z Coordinate {m}
  7.9248,                                 !- Nominal Floor to Floor Height {m}
  ,                                       !- Default Construction Set Name
  ,                                       !- Default Schedule Set Name
  ;                                       !- Group Rendering Name

OS:Space,
  {316cb6c7-b04e-4510-bc88-283b5e5ce64d}, !- Handle
  sp-1-Space,                             !- Name
  ,                                       !- Space Type Name
  ,                                       !- Default Construction Set Name
  ,                                       !- Default Schedule Set Name
  ,                                       !- Direction of Relative North {deg}
  ,                                       !- X Origin {m}
  ,                                       !- Y Origin {m}
  ,                                       !- Z Origin {m}
  {0161c4c0-389d-4e06-8a8d-591b249bd717}, !- Building Story Name
  {ce8cc10a-d4a3-459d-9759-46b1512715fb}; !- Thermal Zone Name

OS:Space,
  {852c0564-bc42-4c8c-b1ca-9414ce27b127}, !- Handle
  sp-4-Space,                             !- Name
  ,                                       !- Space Type Name
  ,                                       !- Default Construction Set Name
  ,                                       !- Default Schedule Set Name
  ,                                       !- Direction of Relative North {deg}
  ,                                       !- X Origin {m}
  ,                                       !- Y Origin {m}
  ,                                       !- Z Origin {m}
  {79ca98c5-7bd5-4f00-a6dd-bc03f9deada4}, !- Building Story Name
  {86457b75-d4c7-480c-a939-65ac8748a944}; !- Thermal Zone Name

OS:Space,
  {c347a750-381e-4c5e-87c6-6898b2baf305}, !- Handle
  sp-3-Space,                             !- Name
  ,                                       !- Space Type Name
  ,                                       !- Default Construction Set Name
  ,                                       !- Default Schedule Set Name
  ,                                       !- Direction of Relative North {deg}
  ,                                       !- X Origin {m}
  ,                                       !- Y Origin {m}
  ,                                       !- Z Origin {m}
  {6abd7435-453f-40fe-934c-725aed662cd1}, !- Building Story Name
  {a3b0154d-0574-4db5-b8b6-548ed0d54366}; !- Thermal Zone Name

OS:Space,
  {45c64be0-9e35-4d3c-93d4-aedcf5d28ce5}, !- Handle
  sp-2-Space,                             !- Name
  ,                                       !- Space Type Name
  ,                                       !- Default Construction Set Name
  ,                                       !- Default Schedule Set Name
  ,                                       !- Direction of Relative North {deg}
  ,                                       !- X Origin {m}
  ,                                       !- Y Origin {m}
  ,                                       !- Z Origin {m}
  {0161c4c0-389d-4e06-8a8d-591b249bd717}, !- Building Story Name
  {9bbfc193-6466-4e23-a9dc-c6ad23dd6632}; !- Thermal Zone Name

OS:Surface,
  {bc33ac78-5869-49ad-ac67-bc4081aa4067}, !- Handle
  Surface 1,                              !- Name
  Floor,                                  !- Surface Type
  ,                                       !- Construction Name
  {316cb6c7-b04e-4510-bc88-283b5e5ce64d}, !- Space Name
  Ground,                                 !- Outside Boundary Condition
  ,                                       !- Outside Boundary Condition Object
  NoSun,                                  !- Sun Exposure
  NoWind,                                 !- Wind Exposure
  ,                                       !- View Factor to Ground
  ,                                       !- Number of Vertices
  -10.9728, 0, 0,                         !- X,Y,Z Vertex 1 {m}
  -10.9728, 6.096, 0,                     !- X,Y,Z Vertex 2 {m}
  0, 6.096, 0,                            !- X,Y,Z Vertex 3 {m}
  0, 0, 0;                                !- X,Y,Z Vertex 4 {m}

OS:Surface,
  {ceefd281-a6ef-42e6-a3c2-8fb04230cc6d}, !- Handle
  Surface 2,                              !- Name
  Wall,                                   !- Surface Type
  ,                                       !- Construction Name
  {316cb6c7-b04e-4510-bc88-283b5e5ce64d}, !- Space Name
  Outdoors,                               !- Outside Boundary Condition
  ,                                       !- Outside Boundary Condition Object
  SunExposed,                             !- Sun Exposure
  WindExposed,                            !- Wind Exposure
  ,                                       !- View Factor to Ground
  ,                                       !- Number of Vertices
  -10.9728, 0, 0,                         !- X,Y,Z Vertex 1 {m}
  -10.9728, 0, 3.048,                     !- X,Y,Z Vertex 2 {m}
  -10.9728, 6.096, 3.048,                 !- X,Y,Z Vertex 3 {m}
  -10.9728, 6.096, 0;                     !- X,Y,Z Vertex 4 {m}

OS:Surface,
  {2927e0e8-9daa-422b-886e-4cc3e497d454}, !- Handle
  Surface 3,                              !- Name
  Wall,                                   !- Surface Type
  ,                                       !- Construction Name
  {316cb6c7-b04e-4510-bc88-283b5e5ce64d}, !- Space Name
  Outdoors,                               !- Outside Boundary Condition
  ,                                       !- Outside Boundary Condition Object
  SunExposed,                             !- Sun Exposure
  WindExposed,                            !- Wind Exposure
  ,                                       !- View Factor to Ground
  ,                                       !- Number of Vertices
  -10.9728, 6.096, 0,                     !- X,Y,Z Vertex 1 {m}
  -10.9728, 6.096, 3.048,                 !- X,Y,Z Vertex 2 {m}
  0, 6.096, 3.048,                        !- X,Y,Z Vertex 3 {m}
  0, 6.096, 0;                            !- X,Y,Z Vertex 4 {m}

OS:Surface,
  {2d0bdf28-fd92-41fd-8772-ae7d760ba8cb}, !- Handle
  Surface 4,                              !- Name
  Wall,                                   !- Surface Type
  ,                                       !- Construction Name
  {316cb6c7-b04e-4510-bc88-283b5e5ce64d}, !- Space Name
  Surface,                                !- Outside Boundary Condition
  {5e096141-88ed-4cb0-ad58-071e65fd7321}, !- Outside Boundary Condition Object
  NoSun,                                  !- Sun Exposure
  NoWind,                                 !- Wind Exposure
  ,                                       !- View Factor to Ground
  ,                                       !- Number of Vertices
  0, 6.096, 0,                            !- X,Y,Z Vertex 1 {m}
  0, 6.096, 3.048,                        !- X,Y,Z Vertex 2 {m}
  0, 0, 3.048,                            !- X,Y,Z Vertex 3 {m}
  0, 0, 0;                                !- X,Y,Z Vertex 4 {m}

OS:Surface,
  {0f79b341-f099-491d-b546-4eb6ccfd3187}, !- Handle
  Surface 5,                              !- Name
  RoofCeiling,                            !- Surface Type
  ,                                       !- Construction Name
  {316cb6c7-b04e-4510-bc88-283b5e5ce64d}, !- Space Name
  Surface,                                !- Outside Boundary Condition
  {87b91854-96a0-492a-a12a-7beeadcecb5c}, !- Outside Boundary Condition Object
  NoSun,                                  !- Sun Exposure
  NoWind,                                 !- Wind Exposure
  ,                                       !- View Factor to Ground
  ,                                       !- Number of Vertices
  0, 6.096, 3.048,                        !- X,Y,Z Vertex 1 {m}
  -10.9728, 6.096, 3.048,                 !- X,Y,Z Vertex 2 {m}
  -10.9728, 0, 3.048,                     !- X,Y,Z Vertex 3 {m}
  0, 0, 3.048;                            !- X,Y,Z Vertex 4 {m}

OS:Surface,
  {87b91854-96a0-492a-a12a-7beeadcecb5c}, !- Handle
  Surface 6,                              !- Name
  Floor,                                  !- Surface Type
  ,                                       !- Construction Name
  {852c0564-bc42-4c8c-b1ca-9414ce27b127}, !- Space Name
  Surface,                                !- Outside Boundary Condition
  {0f79b341-f099-491d-b546-4eb6ccfd3187}, !- Outside Boundary Condition Object
  NoSun,                                  !- Sun Exposure
  NoWind,                                 !- Wind Exposure
  ,                                       !- View Factor to Ground
  ,                                       !- Number of Vertices
  0, 0, 3.048,                            !- X,Y,Z Vertex 1 {m}
  -10.9728, 0, 3.048,                     !- X,Y,Z Vertex 2 {m}
  -10.9728, 6.096, 3.048,                 !- X,Y,Z Vertex 3 {m}
  0, 6.096, 3.048;                        !- X,Y,Z Vertex 4 {m}

OS:Surface,
  {a45ee308-4ddd-4222-8f94-8b2d351899f3}, !- Handle
  Surface 7,                              !- Name
  Wall,                                   !- Surface Type
  ,                                       !- Construction Name
  {852c0564-bc42-4c8c-b1ca-9414ce27b127}, !- Space Name
  Outdoors,                               !- Outside Boundary Condition
  ,                                       !- Outside Boundary Condition Object
  SunExposed,                             !- Sun Exposure
  WindExposed,                            !- Wind Exposure
  ,                                       !- View Factor to Ground
  ,                                       !- Number of Vertices
  -10.9728, 0, 3.048,                     !- X,Y,Z Vertex 1 {m}
  -10.9728, 0, 3.9624,                    !- X,Y,Z Vertex 2 {m}
  -10.9728, 6.096, 3.9624,                !- X,Y,Z Vertex 3 {m}
  -10.9728, 6.096, 3.048;                 !- X,Y,Z Vertex 4 {m}

OS:Surface,
  {6c7f0a91-9e43-4c33-8799-17d38e5d2517}, !- Handle
  Surface 8,                              !- Name
  Wall,                                   !- Surface Type
  ,                                       !- Construction Name
  {852c0564-bc42-4c8c-b1ca-9414ce27b127}, !- Space Name
  Outdoors,                               !- Outside Boundary Condition
  ,                                       !- Outside Boundary Condition Object
  SunExposed,                             !- Sun Exposure
  WindExposed,                            !- Wind Exposure
  ,                                       !- View Factor to Ground
  ,                                       !- Number of Vertices
  -10.9728, 6.096, 3.048,                 !- X,Y,Z Vertex 1 {m}
  -10.9728, 6.096, 3.9624,                !- X,Y,Z Vertex 2 {m}
  0, 6.096, 3.9624,                       !- X,Y,Z Vertex 3 {m}
  0, 6.096, 3.048;                        !- X,Y,Z Vertex 4 {m}

OS:Surface,
  {e5bf5c0f-2a73-457f-972e-d37e67bc90be}, !- Handle
  Surface 9,                              !- Name
  Wall,                                   !- Surface Type
  ,                                       !- Construction Name
  {852c0564-bc42-4c8c-b1ca-9414ce27b127}, !- Space Name
  Surface,                                !- Outside Boundary Condition
  {1c6f746d-e9f3-439b-939f-e6d5c33a9732}, !- Outside Boundary Condition Object
  NoSun,                                  !- Sun Exposure
  NoWind,                                 !- Wind Exposure
  ,                                       !- View Factor to Ground
  ,                                       !- Number of Vertices
  0, 6.096, 3.048,                        !- X,Y,Z Vertex 1 {m}
  0, 6.096, 3.9624,                       !- X,Y,Z Vertex 2 {m}
  0, 0, 3.9624,                           !- X,Y,Z Vertex 3 {m}
  0, 0, 3.048;                            !- X,Y,Z Vertex 4 {m}

OS:Surface,
  {45dfe184-1c97-4574-8b21-9989c117f47f}, !- Handle
  Surface 10,                             !- Name
  RoofCeiling,                            !- Surface Type
  ,                                       !- Construction Name
  {852c0564-bc42-4c8c-b1ca-9414ce27b127}, !- Space Name
  Surface,                                !- Outside Boundary Condition
  {cddceda7-3b3b-4f65-b491-5679a6a6e915}, !- Outside Boundary Condition Object
  NoSun,                                  !- Sun Exposure
  NoWind,                                 !- Wind Exposure
  ,                                       !- View Factor to Ground
  ,                                       !- Number of Vertices
  0, 0, 3.9624,                           !- X,Y,Z Vertex 1 {m}
  0, 6.096, 3.9624,                       !- X,Y,Z Vertex 2 {m}
  -10.9728, 6.096, 3.9624,                !- X,Y,Z Vertex 3 {m}
  -10.9728, 0, 3.9624;                    !- X,Y,Z Vertex 4 {m}

OS:Surface,
  {cddceda7-3b3b-4f65-b491-5679a6a6e915}, !- Handle
  Surface 11,                             !- Name
  Floor,                                  !- Surface Type
  ,                                       !- Construction Name
  {c347a750-381e-4c5e-87c6-6898b2baf305}, !- Space Name
  Surface,                                !- Outside Boundary Condition
  {45dfe184-1c97-4574-8b21-9989c117f47f}, !- Outside Boundary Condition Object
  NoSun,                                  !- Sun Exposure
  NoWind,                                 !- Wind Exposure
  ,                                       !- View Factor to Ground
  ,                                       !- Number of Vertices
  -10.9728, 0, 3.9624,                    !- X,Y,Z Vertex 1 {m}
  -10.9728, 6.096, 3.9624,                !- X,Y,Z Vertex 2 {m}
  0, 6.096, 3.9624,                       !- X,Y,Z Vertex 3 {m}
  0, 0, 3.9624;                           !- X,Y,Z Vertex 4 {m}

OS:Surface,
  {f74160a0-3cfa-4e02-9855-8e0d9c5a2a99}, !- Handle
  Surface 12,                             !- Name
  Wall,                                   !- Surface Type
  ,                                       !- Construction Name
  {c347a750-381e-4c5e-87c6-6898b2baf305}, !- Space Name
  Outdoors,                               !- Outside Boundary Condition
  ,                                       !- Outside Boundary Condition Object
  SunExposed,                             !- Sun Exposure
  WindExposed,                            !- Wind Exposure
  ,                                       !- View Factor to Ground
  ,                                       !- Number of Vertices
  -10.9728, 0, 3.9624,                    !- X,Y,Z Vertex 1 {m}
  -10.9728, 0, 7.9248,                    !- X,Y,Z Vertex 2 {m}
  0, 6.096, 3.9624,                       !- X,Y,Z Vertex 3 {m}
  0, 6.096, 3.048;                        !- X,Y,Z Vertex 4 {m}

OS:Surface,
  {b2d5df72-dc48-4f9b-8dd1-5946b9f0bb7b}, !- Handle
  Surface 13,                             !- Name
  Wall,                                   !- Surface Type
  ,                                       !- Construction Name
  {c347a750-381e-4c5e-87c6-6898b2baf305}, !- Space Name
  Outdoors,                               !- Outside Boundary Condition
  ,                                       !- Outside Boundary Condition Object
  SunExposed,                             !- Sun Exposure
  WindExposed,                            !- Wind Exposure
  ,                                       !- View Factor to Ground
  ,                                       !- Number of Vertices
  -10.9728, 6.096, 3.9624,                !- X,Y,Z Vertex 1 {m}
  -10.9728, 6.096, 7.9248,                !- X,Y,Z Vertex 2 {m}
  0, 6.096, 7.9248,                       !- X,Y,Z Vertex 3 {m}
  0, 6.096, 3.9624;                       !- X,Y,Z Vertex 4 {m}

OS:Surface,
  {f8ea5649-3771-4a1a-ba29-c0a5a350bc26}, !- Handle
  Surface 14,                             !- Name
  RoofCeiling,                            !- Surface Type
  ,                                       !- Construction Name
  {c347a750-381e-4c5e-87c6-6898b2baf305}, !- Space Name
  Outdoors,                               !- Outside Boundary Condition
  ,                                       !- Outside Boundary Condition Object
  SunExposed,                             !- Sun Exposure
  WindExposed,                            !- Wind Exposure
  ,                                       !- View Factor to Ground
  ,                                       !- Number of Vertices
  0, 6.096, 7.9248,                       !- X,Y,Z Vertex 1 {m}
  -10.9728, 6.096, 7.9248,                !- X,Y,Z Vertex 2 {m}
  -10.9728, 0, 7.9248,                    !- X,Y,Z Vertex 3 {m}
  0, 0, 7.9248;                           !- X,Y,Z Vertex 4 {m}

OS:Surface,
  {d29ad807-1a45-43b5-8693-df68d29303e6}, !- Handle
  Surface 15,                             !- Name
  Wall,                                   !- Surface Type
  ,                                       !- Construction Name
  {c347a750-381e-4c5e-87c6-6898b2baf305}, !- Space Name
  Surface,                                !- Outside Boundary Condition
  {64332259-e5d7-4a9c-a779-c19520dbdb72}, !- Outside Boundary Condition Object
  NoSun,                                  !- Sun Exposure
  NoWind,                                 !- Wind Exposure
  ,                                       !- View Factor to Ground
  ,                                       !- Number of Vertices
  0, 6.096, 3.9624,                       !- X,Y,Z Vertex 1 {m}
  0, 6.096, 7.9248,                       !- X,Y,Z Vertex 2 {m}
  0, 0, 7.9248,                           !- X,Y,Z Vertex 3 {m}
  0, 0, 3.9624;                           !- X,Y,Z Vertex 4 {m}

OS:Surface,
  {542bee7d-3678-49ba-ad49-f2f7d48ee58f}, !- Handle
  Surface 16,                             !- Name
  Wall,                                   !- Surface Type
  ,                                       !- Construction Name
  {c347a750-381e-4c5e-87c6-6898b2baf305}, !- Space Name
  Outdoors,                               !- Outside Boundary Condition
  ,                                       !- Outside Boundary Condition Object
  SunExposed,                             !- Sun Exposure
  WindExposed,                            !- Wind Exposure
  ,                                       !- View Factor to Ground
  ,                                       !- Number of Vertices
  0, 0, 3.9624,                           !- X,Y,Z Vertex 1 {m}
  0, 0, 7.9248,                           !- X,Y,Z Vertex 2 {m}
  -10.9728, 0, 7.9248,                    !- X,Y,Z Vertex 3 {m}
  -10.9728, 0, 3.9624;                    !- X,Y,Z Vertex 4 {m}

OS:Surface,
  {5e096141-88ed-4cb0-ad58-071e65fd7321}, !- Handle
  Surface 17,                             !- Name
  Wall,                                   !- Surface Type
  ,                                       !- Construction Name
  {45c64be0-9e35-4d3c-93d4-aedcf5d28ce5}, !- Space Name
  Surface,                                !- Outside Boundary Condition
  {2d0bdf28-fd92-41fd-8772-ae7d760ba8cb}, !- Outside Boundary Condition Object
  NoSun,                                  !- Sun Exposure
  NoWind,                                 !- Wind Exposure
  ,                                       !- View Factor to Ground
  ,                                       !- Number of Vertices
  0, 0, 3.048,                            !- X,Y,Z Vertex 1 {m}
  0, 0, 0,                                !- X,Y,Z Vertex 2 {m}
  0, 6.096, 0,                            !- X,Y,Z Vertex 3 {m}
  0, 6.096, 3.048;                        !- X,Y,Z Vertex 4 {m}

OS:Surface,
  {11389a83-a7fe-4c65-a94b-a369a4da4e14}, !- Handle
  Surface 18,                             !- Name
  Wall,                                   !- Surface Type
  ,                                       !- Construction Name
  {45c64be0-9e35-4d3c-93d4-aedcf5d28ce5}, !- Space Name
  Outdoors,                               !- Outside Boundary Condition
  ,                                       !- Outside Boundary Condition Object
  SunExposed,                             !- Sun Exposure
  WindExposed,                            !- Wind Exposure
  ,                                       !- View Factor to Ground
  ,                                       !- Number of Vertices
  0, 0.0762, 0,                           !- X,Y,Z Vertex 1 {m}
  2.4384, 0.0762, 0,                      !- X,Y,Z Vertex 2 {m}
  2.4384, 0.0762, 7.9248,                 !- X,Y,Z Vertex 3 {m}
  0, 0.0762, 7.9248;                      !- X,Y,Z Vertex 4 {m}

OS:Surface,
  {8c0dc3d6-6294-4717-9892-00d57a33adea}, !- Handle
  Surface 19,                             !- Name
  Wall,                                   !- Surface Type
  ,                                       !- Construction Name
  {45c64be0-9e35-4d3c-93d4-aedcf5d28ce5}, !- Space Name
  Outdoors,                               !- Outside Boundary Condition
  ,                                       !- Outside Boundary Condition Object
  SunExposed,                             !- Sun Exposure
  WindExposed,                            !- Wind Exposure
  ,                                       !- View Factor to Ground
  ,                                       !- Number of Vertices
  2.4384, 0.0762, 7.9248,                 !- X,Y,Z Vertex 1 {m}
  2.4384, 0.0762, 0,                      !- X,Y,Z Vertex 2 {m}
  2.4384, 6.0198, 0,                      !- X,Y,Z Vertex 3 {m}
  2.4384, 6.0198, 7.9248;                 !- X,Y,Z Vertex 4 {m}

OS:Surface,
  {0ce08fe3-cfd1-4cb8-a871-a6d1bb681232}, !- Handle
  Surface 20,                             !- Name
  Wall,                                   !- Surface Type
  ,                                       !- Construction Name
  {45c64be0-9e35-4d3c-93d4-aedcf5d28ce5}, !- Space Name
  Outdoors,                               !- Outside Boundary Condition
  ,                                       !- Outside Boundary Condition Object
  SunExposed,                             !- Sun Exposure
  WindExposed,                            !- Wind Exposure
  ,                                       !- View Factor to Ground
  ,                                       !- Number of Vertices
  2.4384, 6.0198, 7.9248,                 !- X,Y,Z Vertex 1 {m}
  2.4384, 6.0198, 0,                      !- X,Y,Z Vertex 2 {m}
  0, 6.0198, 0,                           !- X,Y,Z Vertex 3 {m}
  0, 6.0198, 7.9248;                      !- X,Y,Z Vertex 4 {m}

OS:Surface,
  {3d37a766-e549-4b4f-afad-306859ebb07f}, !- Handle
  Surface 21,                             !- Name
  RoofCeiling,                            !- Surface Type
  ,                                       !- Construction Name
  {45c64be0-9e35-4d3c-93d4-aedcf5d28ce5}, !- Space Name
  Outdoors,                               !- Outside Boundary Condition
  ,                                       !- Outside Boundary Condition Object
  SunExposed,                             !- Sun Exposure
  WindExposed,                            !- Wind Exposure
  ,                                       !- View Factor to Ground
  ,                                       !- Number of Vertices
  2.4384, 6.0198, 7.9248,                 !- X,Y,Z Vertex 1 {m}
  0, 6.0198, 7.9248,                      !- X,Y,Z Vertex 2 {m}
  0, 0.0762, 7.9248,                      !- X,Y,Z Vertex 3 {m}
  2.4384, 0.0762, 7.9248;                 !- X,Y,Z Vertex 4 {m}

OS:Surface,
  {574ea6df-209d-4074-987a-66e23589e81c}, !- Handle
  Surface 22,                             !- Name
  Floor,                                  !- Surface Type
  ,                                       !- Construction Name
  {45c64be0-9e35-4d3c-93d4-aedcf5d28ce5}, !- Space Name
  Ground,                                 !- Outside Boundary Condition
  ,                                       !- Outside Boundary Condition Object
  NoSun,                                  !- Sun Exposure
  NoWind,                                 !- Wind Exposure
  ,                                       !- View Factor to Ground
  ,                                       !- Number of Vertices
  2.4384, 0.0762, 0,                      !- X,Y,Z Vertex 1 {m}
  0, 0.0762, 0,                           !- X,Y,Z Vertex 2 {m}
  0, 6.0198, 0,                           !- X,Y,Z Vertex 3 {m}
  2.4384, 6.0198, 0;                      !- X,Y,Z Vertex 4 {m}

OS:Surface,
  {64332259-e5d7-4a9c-a779-c19520dbdb72}, !- Handle
  Surface 23,                             !- Name
  Wall,                                   !- Surface Type
  ,                                       !- Construction Name
  {45c64be0-9e35-4d3c-93d4-aedcf5d28ce5}, !- Space Name
  Surface,                                !- Outside Boundary Condition
  {d29ad807-1a45-43b5-8693-df68d29303e6}, !- Outside Boundary Condition Object
  NoSun,                                  !- Sun Exposure
  NoWind,                                 !- Wind Exposure
  ,                                       !- View Factor to Ground
  ,                                       !- Number of Vertices
  0, 0.0762, 3.9624,                      !- X,Y,Z Vertex 1 {m}
  0, 0.0762, 7.9248,                      !- X,Y,Z Vertex 2 {m}
  0, 6.0198, 7.9248,                      !- X,Y,Z Vertex 3 {m}
  0, 6.0198, 3.9624;                      !- X,Y,Z Vertex 4 {m}

OS:Surface,
  {1c6f746d-e9f3-439b-939f-e6d5c33a9732}, !- Handle
  Surface 24,                             !- Name
  Wall,                                   !- Surface Type
  ,                                       !- Construction Name
  {45c64be0-9e35-4d3c-93d4-aedcf5d28ce5}, !- Space Name
  Surface,                                !- Outside Boundary Condition
  {e5bf5c0f-2a73-457f-972e-d37e67bc90be}, !- Outside Boundary Condition Object
  NoSun,                                  !- Sun Exposure
  NoWind,                                 !- Wind Exposure
  ,                                       !- View Factor to Ground
  ,                                       !- Number of Vertices
  0, 0.0762, 3.048,                       !- X,Y,Z Vertex 1 {m}
  0, 0.0762, 3.9624,                      !- X,Y,Z Vertex 2 {m}
  0, 6.0198, 3.9624,                      !- X,Y,Z Vertex 3 {m}
  0, 6.0198, 3.048;                       !- X,Y,Z Vertex 4 {m}

OS:ThermalZone,
  {ce8cc10a-d4a3-459d-9759-46b1512715fb}, !- Handle
  sp-1-Zone,                              !- Name
  ,                                       !- Multiplier
  ,                                       !- Ceiling Height {m}
  ,                                       !- Volume {m3}
  ,                                       !- Floor Area {m2}
  ,                                       !- Zone Inside Convection Algorithm
  ,                                       !- Zone Outside Convection Algorithm
  ,                                       !- Zone Conditioning Equipment List Name
  {d9c05de9-28f6-4483-aeec-95ef8cfe150c}, !- Zone Air Inlet Port List
  {1700301c-c872-47c1-a34e-56a28c6f3a75}, !- Zone Air Exhaust Port List
  {9da30ed9-c2bc-4cea-8779-ea7747a68546}, !- Zone Air Node Name
  ,                                       !- Zone Return Air Node Name
  ,                                       !- Primary Daylighting Control Name
  ,                                       !- Fraction of Zone Controlled by Primary Daylighting Control
  ,                                       !- Secondary Daylighting Control Name
  ,                                       !- Fraction of Zone Controlled by Secondary Daylighting Control
  ,                                       !- Illuminance Map Name