
OS:Version,
  {c70c52bc-64a9-475c-b8d9-667755e958fc}, !- Handle
  1.9.0;                                  !- Version Identifier

OS:Facility,
  {58e268a5-71a6-45f9-ab91-e7a89dd9b817}; !- Handle

OS:Building,
  {43473814-0aca-48b4-b1b7-5b15b34e8100}, !- Handle
  Building 1,                             !- Name
  ,                                       !- Building Sector Type
  ,                                       !- North Axis {deg}
  ,                                       !- Nominal Floor to Floor Height {m}
  ,                                       !- Space Type Name
  ,                                       !- Default Construction Set Name
  ;                                       !- Default Schedule Set Name

OS:BuildingStory,
  {14125638-8c76-4f13-887e-1927189fcdca}, !- Handle
  Level 1,                                !- Name
  ,                                       !- Nominal Z Coordinate {m}
  ,                                       !- Nominal Floor to Floor Height {m}
  ,                                       !- Default Construction Set Name
  ,                                       !- Default Schedule Set Name
  ;                                       !- Group Rendering Name

OS:BuildingStory,
  {cb30e318-faec-46cd-a6a9-cecfed5a5f4f}, !- Handle
  Level 1 Plenum,                         !- Name
  ,                                       !- Nominal Z Coordinate {m}
  3.048,                                  !- Nominal Floor to Floor Height {m}
  ,                                       !- Default Construction Set Name
  ,                                       !- Default Schedule Set Name
  ;                                       !- Group Rendering Name

OS:BuildingStory,
  {28b9a2b7-e4c1-489d-b1a5-154faa5812fd}, !- Handle
  Level 2,                                !- Name
  ,                                       !- Nominal Z Coordinate {m}
  3.9624,                                 !- Nominal Floor to Floor Height {m}
  ,                                       !- Default Construction Set Name
  ,                                       !- Default Schedule Set Name
  ;                                       !- Group Rendering Name

OS:BuildingStory,
  {6333da7a-0621-49dd-9022-9014c3a1e573}, !- Handle
  Level 2 Plenum,                         !- Name
  ,                                       !- Nominal Z Coordinate {m}
  7.0104,                                 !- Nominal Floor to Floor Height {m}
  ,                                       !- Default Construction Set Name
  ,                                       !- Default Schedule Set Name
  ;                                       !- Group Rendering Name

OS:BuildingStory,
  {0642a49d-697c-4d13-9ebc-b0e89a1053f2}, !- Handle
  Level 3,                                !- Name
  ,                                       !- Nominal Z Coordinate {m}
  7.9248,                                 !- Nominal Floor to Floor Height {m}
  ,                                       !- Default Construction Set Name
  ,                                       !- Default Schedule Set Name
  ;                                       !- Group Rendering Name

OS:Space,
  {f60e2c06-cb47-4bff-aa81-ebfbaac86928}, !- Handle
  sp-1-Space,                             !- Name
  ,                                       !- Space Type Name
  ,                                       !- Default Construction Set Name
  ,                                       !- Default Schedule Set Name
  ,                                       !- Direction of Relative North {deg}
  ,                                       !- X Origin {m}
  ,                                       !- Y Origin {m}
  ,                                       !- Z Origin {m}
  {14125638-8c76-4f13-887e-1927189fcdca}, !- Building Story Name
  {5e405a76-b974-4693-bbb6-9592a592cffa}; !- Thermal Zone Name

OS:Space,
  {b578ab31-3e90-49ff-be68-69f1c250fd99}, !- Handle
  sp-4-Space,                             !- Name
  ,                                       !- Space Type Name
  ,                                       !- Default Construction Set Name
  ,                                       !- Default Schedule Set Name
  ,                                       !- Direction of Relative North {deg}
  ,                                       !- X Origin {m}
  ,                                       !- Y Origin {m}
  ,                                       !- Z Origin {m}
  {cb30e318-faec-46cd-a6a9-cecfed5a5f4f}, !- Building Story Name
  {e717216e-fb56-46d2-90f2-61f2aecaf824}; !- Thermal Zone Name

OS:Space,
  {112560d2-6e2b-442b-8d72-9b011b95731f}, !- Handle
  sp-3-Space,                             !- Name
  ,                                       !- Space Type Name
  ,                                       !- Default Construction Set Name
  ,                                       !- Default Schedule Set Name
  ,                                       !- Direction of Relative North {deg}
  ,                                       !- X Origin {m}
  ,                                       !- Y Origin {m}
  ,                                       !- Z Origin {m}
  {28b9a2b7-e4c1-489d-b1a5-154faa5812fd}, !- Building Story Name
  {328c4bc3-17f4-4e30-8efd-2b26b8694075}; !- Thermal Zone Name

OS:Space,
  {49d03d11-34fc-4ec4-bad3-41fb6c95a419}, !- Handle
  sp-2-Space,                             !- Name
  ,                                       !- Space Type Name
  ,                                       !- Default Construction Set Name
  ,                                       !- Default Schedule Set Name
  ,                                       !- Direction of Relative North {deg}
  ,                                       !- X Origin {m}
  ,                                       !- Y Origin {m}
  ,                                       !- Z Origin {m}
  {14125638-8c76-4f13-887e-1927189fcdca}, !- Building Story Name
  {9869b830-f934-4b82-9ad3-5c5505089e33}; !- Thermal Zone Name

OS:Surface,
  {863bc1c3-f505-4bac-988a-4189653596af}, !- Handle
  Surface 1,                              !- Name
  Floor,                                  !- Surface Type
  ,                                       !- Construction Name
  {f60e2c06-cb47-4bff-aa81-ebfbaac86928}, !- Space Name
  Ground,                                 !- Outside Boundary Condition
  ,                                       !- Outside Boundary Condition Object
  NoSun,                                  !- Sun Exposure
  NoWind,                                 !- Wind Exposure
  ,                                       !- View Factor to Ground
  ,                                       !- Number of Vertices
  -10.9728, 0, 0,                         !- X,Y,Z Vertex 1 {m}
  -10.9728, 6.096, 0,                     !- X,Y,Z Vertex 2 {m}
  0, 6.096, 0,                            !- X,Y,Z Vertex 3 {m}
  0, 0, 0;                                !- X,Y,Z Vertex 4 {m}

OS:Surface,
  {799efb35-a2bb-4b6b-8c9c-8f160118d184}, !- Handle
  Surface 2,                              !- Name
  Wall,                                   !- Surface Type
  ,                                       !- Construction Name
  {f60e2c06-cb47-4bff-aa81-ebfbaac86928}, !- Space Name
  Outdoors,                               !- Outside Boundary Condition
  ,                                       !- Outside Boundary Condition Object
  SunExposed,                             !- Sun Exposure
  WindExposed,                            !- Wind Exposure
  ,                                       !- View Factor to Ground
  ,                                       !- Number of Vertices
  -10.9728, 0, 0,                         !- X,Y,Z Vertex 1 {m}
  -10.9728, 0, 3.048,                     !- X,Y,Z Vertex 2 {m}
  -10.9728, 6.096, 3.048,                 !- X,Y,Z Vertex 3 {m}
  -10.9728, 6.096, 0;                     !- X,Y,Z Vertex 4 {m}

OS:Surface,
  {863ed191-d044-4767-b0c0-e4297161d815}, !- Handle
  Surface 3,                              !- Name
  Wall,                                   !- Surface Type
  ,                                       !- Construction Name
  {f60e2c06-cb47-4bff-aa81-ebfbaac86928}, !- Space Name
  Outdoors,                               !- Outside Boundary Condition
  ,                                       !- Outside Boundary Condition Object
  SunExposed,                             !- Sun Exposure
  WindExposed,                            !- Wind Exposure
  ,                                       !- View Factor to Ground
  ,                                       !- Number of Vertices
  -10.9728, 6.096, 0,                     !- X,Y,Z Vertex 1 {m}
  -10.9728, 6.096, 3.048,                 !- X,Y,Z Vertex 2 {m}
  0, 6.096, 3.048,                        !- X,Y,Z Vertex 3 {m}
  0, 6.096, 0;                            !- X,Y,Z Vertex 4 {m}

OS:Surface,
  {4bbe4297-0809-4beb-b51e-91c6e9ad585c}, !- Handle
  Surface 4,                              !- Name
  Wall,                                   !- Surface Type
  ,                                       !- Construction Name
  {f60e2c06-cb47-4bff-aa81-ebfbaac86928}, !- Space Name
  Surface,                                !- Outside Boundary Condition
  {dc55245b-ff09-4eb2-9891-1b8a89ddef94}, !- Outside Boundary Condition Object
  NoSun,                                  !- Sun Exposure
  NoWind,                                 !- Wind Exposure
  ,                                       !- View Factor to Ground
  ,                                       !- Number of Vertices
  0, 6.096, 0,                            !- X,Y,Z Vertex 1 {m}
  0, 6.096, 3.048,                        !- X,Y,Z Vertex 2 {m}
  0, 0, 3.048,                            !- X,Y,Z Vertex 3 {m}
  0, 0, 0;                                !- X,Y,Z Vertex 4 {m}

OS:Surface,
  {7a711ffe-f666-4f03-a5dd-ab16df5463b1}, !- Handle
  Surface 5,                              !- Name
  RoofCeiling,                            !- Surface Type
  ,                                       !- Construction Name
  {f60e2c06-cb47-4bff-aa81-ebfbaac86928}, !- Space Name
  Surface,                                !- Outside Boundary Condition
  {5e73237a-5010-48e2-8664-efe029996bec}, !- Outside Boundary Condition Object
  NoSun,                                  !- Sun Exposure
  NoWind,                                 !- Wind Exposure
  ,                                       !- View Factor to Ground
  ,                                       !- Number of Vertices
  0, 6.096, 3.048,                        !- X,Y,Z Vertex 1 {m}
  -10.9728, 6.096, 3.048,                 !- X,Y,Z Vertex 2 {m}
  -10.9728, 0, 3.048,                     !- X,Y,Z Vertex 3 {m}
  0, 0, 3.048;                            !- X,Y,Z Vertex 4 {m}

OS:Surface,
  {5e73237a-5010-48e2-8664-efe029996bec}, !- Handle
  Surface 6,                              !- Name
  Floor,                                  !- Surface Type
  ,                                       !- Construction Name
  {b578ab31-3e90-49ff-be68-69f1c250fd99}, !- Space Name
  Surface,                                !- Outside Boundary Condition
  {7a711ffe-f666-4f03-a5dd-ab16df5463b1}, !- Outside Boundary Condition Object
  NoSun,                                  !- Sun Exposure
  NoWind,                                 !- Wind Exposure
  ,                                       !- View Factor to Ground
  ,                                       !- Number of Vertices
  0, 0, 3.048,                            !- X,Y,Z Vertex 1 {m}
  -10.9728, 0, 3.048,                     !- X,Y,Z Vertex 2 {m}
  -10.9728, 6.096, 3.048,                 !- X,Y,Z Vertex 3 {m}
  0, 6.096, 3.048;                        !- X,Y,Z Vertex 4 {m}

OS:Surface,
  {cf0b70cb-6791-454d-8849-a58b2c6a3a9e}, !- Handle
  Surface 7,                              !- Name
  Wall,                                   !- Surface Type
  ,                                       !- Construction Name
  {b578ab31-3e90-49ff-be68-69f1c250fd99}, !- Space Name
  Outdoors,                               !- Outside Boundary Condition
  ,                                       !- Outside Boundary Condition Object
  SunExposed,                             !- Sun Exposure
  WindExposed,                            !- Wind Exposure
  ,                                       !- View Factor to Ground
  ,                                       !- Number of Vertices
  -10.9728, 0, 3.048,                     !- X,Y,Z Vertex 1 {m}
  -10.9728, 0, 3.9624,                    !- X,Y,Z Vertex 2 {m}
  -10.9728, 6.096, 3.9624,                !- X,Y,Z Vertex 3 {m}
  -10.9728, 6.096, 3.048;                 !- X,Y,Z Vertex 4 {m}

OS:Surface,
  {6f37fadd-f588-4b27-abc9-6a92a60946db}, !- Handle
  Surface 8,                              !- Name
  Wall,                                   !- Surface Type
  ,                                       !- Construction Name
  {b578ab31-3e90-49ff-be68-69f1c250fd99}, !- Space Name
  Outdoors,                               !- Outside Boundary Condition
  ,                                       !- Outside Boundary Condition Object
  SunExposed,                             !- Sun Exposure
  WindExposed,                            !- Wind Exposure
  ,                                       !- View Factor to Ground
  ,                                       !- Number of Vertices
  -10.9728, 6.096, 3.048,                 !- X,Y,Z Vertex 1 {m}
  -10.9728, 6.096, 3.9624,                !- X,Y,Z Vertex 2 {m}
  0, 6.096, 3.9624,                       !- X,Y,Z Vertex 3 {m}
  0, 6.096, 3.048;                        !- X,Y,Z Vertex 4 {m}

OS:Surface,
  {edcedd4c-6a43-45ef-a04b-7cd81c67c2fe}, !- Handle
  Surface 9,                              !- Name
  Wall,                                   !- Surface Type
  ,                                       !- Construction Name
  {b578ab31-3e90-49ff-be68-69f1c250fd99}, !- Space Name
  Surface,                                !- Outside Boundary Condition
  {7c15196a-77dd-444f-9870-aea690562116}, !- Outside Boundary Condition Object
  NoSun,                                  !- Sun Exposure
  NoWind,                                 !- Wind Exposure
  ,                                       !- View Factor to Ground
  ,                                       !- Number of Vertices
  0, 6.096, 3.048,                        !- X,Y,Z Vertex 1 {m}
  0, 6.096, 3.9624,                       !- X,Y,Z Vertex 2 {m}
  0, 0, 3.9624,                           !- X,Y,Z Vertex 3 {m}
  0, 0, 3.048;                            !- X,Y,Z Vertex 4 {m}

OS:Surface,
  {4a4ba210-7647-4bc2-a430-282e498840ba}, !- Handle
  Surface 10,                             !- Name
  RoofCeiling,                            !- Surface Type
  ,                                       !- Construction Name
  {b578ab31-3e90-49ff-be68-69f1c250fd99}, !- Space Name
  Surface,                                !- Outside Boundary Condition
  {36d51a73-bbd5-438d-a293-55e86a94ade9}, !- Outside Boundary Condition Object
  NoSun,                                  !- Sun Exposure
  NoWind,                                 !- Wind Exposure
  ,                                       !- View Factor to Ground
  ,                                       !- Number of Vertices
  0, 0, 3.9624,                           !- X,Y,Z Vertex 1 {m}
  0, 6.096, 3.9624,                       !- X,Y,Z Vertex 2 {m}
  -10.9728, 6.096, 3.9624,                !- X,Y,Z Vertex 3 {m}
  -10.9728, 0, 3.9624;                    !- X,Y,Z Vertex 4 {m}

OS:Surface,
  {36d51a73-bbd5-438d-a293-55e86a94ade9}, !- Handle
  Surface 11,                             !- Name
  Floor,                                  !- Surface Type
  ,                                       !- Construction Name
  {112560d2-6e2b-442b-8d72-9b011b95731f}, !- Space Name
  Surface,                                !- Outside Boundary Condition
  {4a4ba210-7647-4bc2-a430-282e498840ba}, !- Outside Boundary Condition Object
  NoSun,                                  !- Sun Exposure
  NoWind,                                 !- Wind Exposure
  ,                                       !- View Factor to Ground
  ,                                       !- Number of Vertices
  -10.9728, 0, 3.9624,                    !- X,Y,Z Vertex 1 {m}
  -10.9728, 6.096, 3.9624,                !- X,Y,Z Vertex 2 {m}
  0, 6.096, 3.9624,                       !- X,Y,Z Vertex 3 {m}
  0, 0, 3.9624;                           !- X,Y,Z Vertex 4 {m}

OS:Surface,
  {66f02903-577c-4b24-8bf5-915cf0265752}, !- Handle
  Surface 12,                             !- Name
  Wall,                                   !- Surface Type
  ,                                       !- Construction Name
  {112560d2-6e2b-442b-8d72-9b011b95731f}, !- Space Name
  Outdoors,                               !- Outside Boundary Condition
  ,                                       !- Outside Boundary Condition Object
  SunExposed,                             !- Sun Exposure
  WindExposed,                            !- Wind Exposure
  ,                                       !- View Factor to Ground
  ,                                       !- Number of Vertices
  -10.9728, 0, 3.9624,                    !- X,Y,Z Vertex 1 {m}
  -10.9728, 0, 7.9248,                    !- X,Y,Z Vertex 2 {m}
  0, 6.096, 3.9624,                       !- X,Y,Z Vertex 3 {m}
  0, 6.096, 3.048;                        !- X,Y,Z Vertex 4 {m}

OS:Surface,
  {5bcc57a8-cf29-40f4-be15-081bc3c406e0}, !- Handle
  Surface 13,                             !- Name
  Wall,                                   !- Surface Type
  ,                                       !- Construction Name
  {112560d2-6e2b-442b-8d72-9b011b95731f}, !- Space Name
  Outdoors,                               !- Outside Boundary Condition
  ,                                       !- Outside Boundary Condition Object
  SunExposed,                             !- Sun Exposure
  WindExposed,                            !- Wind Exposure
  ,                                       !- View Factor to Ground
  ,                                       !- Number of Vertices
  -10.9728, 6.096, 3.9624,                !- X,Y,Z Vertex 1 {m}
  -10.9728, 6.096, 7.9248,                !- X,Y,Z Vertex 2 {m}
  0, 6.096, 7.9248,                       !- X,Y,Z Vertex 3 {m}
  0, 6.096, 3.9624;                       !- X,Y,Z Vertex 4 {m}

OS:Surface,
  {8e0297cd-14e0-41ea-a511-e393ee3bf9f5}, !- Handle
  Surface 14,                             !- Name
  RoofCeiling,                            !- Surface Type
  ,                                       !- Construction Name
  {112560d2-6e2b-442b-8d72-9b011b95731f}, !- Space Name
  Outdoors,                               !- Outside Boundary Condition
  ,                                       !- Outside Boundary Condition Object
  SunExposed,                             !- Sun Exposure
  WindExposed,                            !- Wind Exposure
  ,                                       !- View Factor to Ground
  ,                                       !- Number of Vertices
  0, 6.096, 7.9248,                       !- X,Y,Z Vertex 1 {m}
  -10.9728, 6.096, 7.9248,                !- X,Y,Z Vertex 2 {m}
  -10.9728, 0, 7.9248,                    !- X,Y,Z Vertex 3 {m}
  0, 0, 7.9248;                           !- X,Y,Z Vertex 4 {m}

OS:Surface,
  {996a4938-44bb-49e1-b2a2-3d940c7fbf0c}, !- Handle
  Surface 15,                             !- Name
  Wall,                                   !- Surface Type
  ,                                       !- Construction Name
  {112560d2-6e2b-442b-8d72-9b011b95731f}, !- Space Name
  Surface,                                !- Outside Boundary Condition
  {b3516d31-5bc7-479d-86b8-be109d6a1cbc}, !- Outside Boundary Condition Object
  NoSun,                                  !- Sun Exposure
  NoWind,                                 !- Wind Exposure
  ,                                       !- View Factor to Ground
  ,                                       !- Number of Vertices
  0, 6.096, 3.9624,                       !- X,Y,Z Vertex 1 {m}
  0, 6.096, 7.9248,                       !- X,Y,Z Vertex 2 {m}
  0, 0, 7.9248,                           !- X,Y,Z Vertex 3 {m}
  0, 0, 3.9624;                           !- X,Y,Z Vertex 4 {m}

OS:Surface,
  {77484d16-55cc-47d3-8e11-cd0064ddbe68}, !- Handle
  Surface 16,                             !- Name
  Wall,                                   !- Surface Type
  ,                                       !- Construction Name
  {112560d2-6e2b-442b-8d72-9b011b95731f}, !- Space Name
  Outdoors,                               !- Outside Boundary Condition
  ,                                       !- Outside Boundary Condition Object
  SunExposed,                             !- Sun Exposure
  WindExposed,                            !- Wind Exposure
  ,                                       !- View Factor to Ground
  ,                                       !- Number of Vertices
  0, 0, 3.9624,                           !- X,Y,Z Vertex 1 {m}
  0, 0, 7.9248,                           !- X,Y,Z Vertex 2 {m}
  -10.9728, 0, 7.9248,                    !- X,Y,Z Vertex 3 {m}
  -10.9728, 0, 3.9624;                    !- X,Y,Z Vertex 4 {m}

OS:Surface,
  {dc55245b-ff09-4eb2-9891-1b8a89ddef94}, !- Handle
  Surface 17,                             !- Name
  Wall,                                   !- Surface Type
  ,                                       !- Construction Name
  {49d03d11-34fc-4ec4-bad3-41fb6c95a419}, !- Space Name
  Surface,                                !- Outside Boundary Condition
  {4bbe4297-0809-4beb-b51e-91c6e9ad585c}, !- Outside Boundary Condition Object
  NoSun,                                  !- Sun Exposure
  NoWind,                                 !- Wind Exposure
  ,                                       !- View Factor to Ground
  ,                                       !- Number of Vertices
  0, 0, 3.048,                            !- X,Y,Z Vertex 1 {m}
  0, 0, 0,                                !- X,Y,Z Vertex 2 {m}
  0, 6.096, 0,                            !- X,Y,Z Vertex 3 {m}
  0, 6.096, 3.048;                        !- X,Y,Z Vertex 4 {m}

OS:Surface,
  {79674cd1-1844-4a20-b715-4638df1f6ec6}, !- Handle
  Surface 18,                             !- Name
  Wall,                                   !- Surface Type
  ,                                       !- Construction Name
  {49d03d11-34fc-4ec4-bad3-41fb6c95a419}, !- Space Name
  Outdoors,                               !- Outside Boundary Condition
  ,                                       !- Outside Boundary Condition Object
  SunExposed,                             !- Sun Exposure
  WindExposed,                            !- Wind Exposure
  ,                                       !- View Factor to Ground
  ,                                       !- Number of Vertices
  0, 0.0762, 0,                           !- X,Y,Z Vertex 1 {m}
  2.4384, 0.0762, 0,                      !- X,Y,Z Vertex 2 {m}
  2.4384, 0.0762, 7.9248,                 !- X,Y,Z Vertex 3 {m}
  0, 0.0762, 7.9248;                      !- X,Y,Z Vertex 4 {m}

OS:Surface,
  {fa8f3d17-7f19-47a4-879f-00c92455ccd1}, !- Handle
  Surface 19,                             !- Name
  Wall,                                   !- Surface Type
  ,                                       !- Construction Name
  {49d03d11-34fc-4ec4-bad3-41fb6c95a419}, !- Space Name
  Outdoors,                               !- Outside Boundary Condition
  ,                                       !- Outside Boundary Condition Object
  SunExposed,                             !- Sun Exposure
  WindExposed,                            !- Wind Exposure
  ,                                       !- View Factor to Ground
  ,                                       !- Number of Vertices
  2.4384, 0.0762, 7.9248,                 !- X,Y,Z Vertex 1 {m}
  2.4384, 0.0762, 0,                      !- X,Y,Z Vertex 2 {m}
  2.4384, 6.0198, 0,                      !- X,Y,Z Vertex 3 {m}
  2.4384, 6.0198, 7.9248;                 !- X,Y,Z Vertex 4 {m}

OS:Surface,
  {09773ef3-11d1-438e-9a1f-a60958f24e68}, !- Handle
  Surface 20,                             !- Name
  Wall,                                   !- Surface Type
  ,                                       !- Construction Name
  {49d03d11-34fc-4ec4-bad3-41fb6c95a419}, !- Space Name
  Outdoors,                               !- Outside Boundary Condition
  ,                                       !- Outside Boundary Condition Object
  SunExposed,                             !- Sun Exposure
  WindExposed,                            !- Wind Exposure
  ,                                       !- View Factor to Ground
  ,                                       !- Number of Vertices
  2.4384, 6.0198, 7.9248,                 !- X,Y,Z Vertex 1 {m}
  2.4384, 6.0198, 0,                      !- X,Y,Z Vertex 2 {m}
  0, 6.0198, 0,                           !- X,Y,Z Vertex 3 {m}
  0, 6.0198, 7.9248;                      !- X,Y,Z Vertex 4 {m}

OS:Surface,
  {e1ae32ac-feb0-4ad4-93de-88a8196e3959}, !- Handle
  Surface 21,                             !- Name
  RoofCeiling,                            !- Surface Type
  ,                                       !- Construction Name
  {49d03d11-34fc-4ec4-bad3-41fb6c95a419}, !- Space Name
  Outdoors,                               !- Outside Boundary Condition
  ,                                       !- Outside Boundary Condition Object
  SunExposed,                             !- Sun Exposure
  WindExposed,                            !- Wind Exposure
  ,                                       !- View Factor to Ground
  ,                                       !- Number of Vertices
  2.4384, 6.0198, 7.9248,                 !- X,Y,Z Vertex 1 {m}
  0, 6.0198, 7.9248,                      !- X,Y,Z Vertex 2 {m}
  0, 0.0762, 7.9248,                      !- X,Y,Z Vertex 3 {m}
  2.4384, 0.0762, 7.9248;                 !- X,Y,Z Vertex 4 {m}

OS:Surface,
  {0fccf90a-f874-48e8-925a-2a4c00e0e7ae}, !- Handle
  Surface 22,                             !- Name
  Floor,                                  !- Surface Type
  ,                                       !- Construction Name
  {49d03d11-34fc-4ec4-bad3-41fb6c95a419}, !- Space Name
  Ground,                                 !- Outside Boundary Condition
  ,                                       !- Outside Boundary Condition Object
  NoSun,                                  !- Sun Exposure
  NoWind,                                 !- Wind Exposure
  ,                                       !- View Factor to Ground
  ,                                       !- Number of Vertices
  2.4384, 0.0762, 0,                      !- X,Y,Z Vertex 1 {m}
  0, 0.0762, 0,                           !- X,Y,Z Vertex 2 {m}
  0, 6.0198, 0,                           !- X,Y,Z Vertex 3 {m}
  2.4384, 6.0198, 0;                      !- X,Y,Z Vertex 4 {m}

OS:Surface,
  {b3516d31-5bc7-479d-86b8-be109d6a1cbc}, !- Handle
  Surface 23,                             !- Name
  Wall,                                   !- Surface Type
  ,                                       !- Construction Name
  {49d03d11-34fc-4ec4-bad3-41fb6c95a419}, !- Space Name
  Surface,                                !- Outside Boundary Condition
  {996a4938-44bb-49e1-b2a2-3d940c7fbf0c}, !- Outside Boundary Condition Object
  NoSun,                                  !- Sun Exposure
  NoWind,                                 !- Wind Exposure
  ,                                       !- View Factor to Ground
  ,                                       !- Number of Vertices
  0, 0.0762, 3.9624,                      !- X,Y,Z Vertex 1 {m}
  0, 0.0762, 7.9248,                      !- X,Y,Z Vertex 2 {m}
  0, 6.0198, 7.9248,                      !- X,Y,Z Vertex 3 {m}
  0, 6.0198, 3.9624;                      !- X,Y,Z Vertex 4 {m}

OS:Surface,
  {7c15196a-77dd-444f-9870-aea690562116}, !- Handle
  Surface 24,                             !- Name
  Wall,                                   !- Surface Type
  ,                                       !- Construction Name
  {49d03d11-34fc-4ec4-bad3-41fb6c95a419}, !- Space Name
  Surface,                                !- Outside Boundary Condition
  {edcedd4c-6a43-45ef-a04b-7cd81c67c2fe}, !- Outside Boundary Condition Object
  NoSun,                                  !- Sun Exposure
  NoWind,                                 !- Wind Exposure
  ,                                       !- View Factor to Ground
  ,                                       !- Number of Vertices
  0, 0.0762, 3.048,                       !- X,Y,Z Vertex 1 {m}
  0, 0.0762, 3.9624,                      !- X,Y,Z Vertex 2 {m}
  0, 6.0198, 3.9624,                      !- X,Y,Z Vertex 3 {m}
  0, 6.0198, 3.048;                       !- X,Y,Z Vertex 4 {m}

OS:ThermalZone,
  {328c4bc3-17f4-4e30-8efd-2b26b8694075}, !- Handle
  sp-3-Zone,                              !- Name
  ,                                       !- Multiplier
  ,                                       !- Ceiling Height {m}
  ,                                       !- Volume {m3}
  ,                                       !- Floor Area {m2}
  ,                                       !- Zone Inside Convection Algorithm
  ,                                       !- Zone Outside Convection Algorithm
  ,                                       !- Zone Conditioning Equipment List Name
  {cfe11c79-4648-425b-9bc9-d5f7208a98ee}, !- Zone Air Inlet Port List
  {519e7339-4cba-4f6a-98fc-da8e88f75396}, !- Zone Air Exhaust Port List
  {953b6616-f800-4d69-980f-00f70a165425}, !- Zone Air Node Name
  ,                                       !- Zone Return Air Node Name
  ,                                       !- Primary Daylighting Control Name
  ,                                       !- Fraction of Zone Controlled by Primary Daylighting Control
  ,                                       !- Secondary Daylighting Control Name
  ,                                       !- Fraction of Zone Controlled by Secondary Daylighting Control
  ,                                       !- Illuminance Map Name