
OS:Version,
  {97b3defe-b9d5-4dbe-8b5d-bb85ec869593}, !- Handle
  1.9.0;                                  !- Version Identifier

OS:Facility,
  {3e528487-5706-4098-99c0-9d69b021a75c}; !- Handle

OS:Building,
  {e5965b4c-0c9a-4401-9097-4670b7d32345}, !- Handle
  Building 1,                             !- Name
  ,                                       !- Building Sector Type
  ,                                       !- North Axis {deg}
  ,                                       !- Nominal Floor to Floor Height {m}
  ,                                       !- Space Type Name
  ,                                       !- Default Construction Set Name
  ;                                       !- Default Schedule Set Name

OS:BuildingStory,
  {81538a46-98ea-4df9-8a40-730995ea5a5d}, !- Handle
  Level 1,                                !- Name
  ,                                       !- Nominal Z Coordinate {m}
  ,                                       !- Nominal Floor to Floor Height {m}
  ,                                       !- Default Construction Set Name
  ,                                       !- Default Schedule Set Name
  ;                                       !- Group Rendering Name

OS:BuildingStory,
  {4ecb1dcf-795e-4bd8-8888-90b891818b19}, !- Handle
  Level 1 Plenum,                         !- Name
  ,                                       !- Nominal Z Coordinate {m}
  3.048,                                  !- Nominal Floor to Floor Height {m}
  ,                                       !- Default Construction Set Name
  ,                                       !- Default Schedule Set Name
  ;                                       !- Group Rendering Name

OS:BuildingStory,
  {5bf4d573-27f5-4562-96ef-8f51fd61e2ee}, !- Handle
  Level 2,                                !- Name
  ,                                       !- Nominal Z Coordinate {m}
  3.9624,                                 !- Nominal Floor to Floor Height {m}
  ,                                       !- Default Construction Set Name
  ,                                       !- Default Schedule Set Name
  ;                                       !- Group Rendering Name

OS:BuildingStory,
  {3bf08bb5-933b-4f47-979d-f7d4cea64afa}, !- Handle
  Level 2 Plenum,                         !- Name
  ,                                       !- Nominal Z Coordinate {m}
  7.0104,                                 !- Nominal Floor to Floor Height {m}
  ,                                       !- Default Construction Set Name
  ,                                       !- Default Schedule Set Name
  ;                                       !- Group Rendering Name

OS:BuildingStory,
  {e65207e7-5faf-49ab-93a0-5e29e539a5dd}, !- Handle
  Level 3,                                !- Name
  ,                                       !- Nominal Z Coordinate {m}
  7.9248,                                 !- Nominal Floor to Floor Height {m}
  ,                                       !- Default Construction Set Name
  ,                                       !- Default Schedule Set Name
  ;                                       !- Group Rendering Name

OS:Space,
  {b0b89e62-3aed-4e03-8de1-a52029fd1291}, !- Handle
  sp-1-Space,                             !- Name
  ,                                       !- Space Type Name
  ,                                       !- Default Construction Set Name
  ,                                       !- Default Schedule Set Name
  ,                                       !- Direction of Relative North {deg}
  ,                                       !- X Origin {m}
  ,                                       !- Y Origin {m}
  ,                                       !- Z Origin {m}
  {81538a46-98ea-4df9-8a40-730995ea5a5d}, !- Building Story Name
  {79af272b-6c87-4427-a32c-db956e45230e}; !- Thermal Zone Name

OS:Surface,
  {35b83b1c-92a2-4262-8fe0-b4a0d41b33ae}, !- Handle
  Surface 1,                              !- Name
  Floor,                                  !- Surface Type
  ,                                       !- Construction Name
  {b0b89e62-3aed-4e03-8de1-a52029fd1291}, !- Space Name
  Ground,                                 !- Outside Boundary Condition
  ,                                       !- Outside Boundary Condition Object
  NoSun,                                  !- Sun Exposure
  NoWind,                                 !- Wind Exposure
  ,                                       !- View Factor to Ground
  ,                                       !- Number of Vertices
  -10.9728, 0, 0,                         !- X,Y,Z Vertex 1 {m}
  -10.9728, 6.096, 0,                     !- X,Y,Z Vertex 2 {m}
  0, 6.096, 0,                            !- X,Y,Z Vertex 3 {m}
  0, 0, 0;                                !- X,Y,Z Vertex 4 {m}

OS:Surface,
  {909122c9-14a6-4bce-898e-b45bd3a3547a}, !- Handle
  Surface 2,                              !- Name
  Wall,                                   !- Surface Type
  ,                                       !- Construction Name
  {b0b89e62-3aed-4e03-8de1-a52029fd1291}, !- Space Name
  Outdoors,                               !- Outside Boundary Condition
  ,                                       !- Outside Boundary Condition Object
  SunExposed,                             !- Sun Exposure
  WindExposed,                            !- Wind Exposure
  ,                                       !- View Factor to Ground
  ,                                       !- Number of Vertices
  -10.9728, 6.096, 3.048,                 !- X,Y,Z Vertex 1 {m}
  -10.9728, 6.096, 0,                     !- X,Y,Z Vertex 2 {m}
  -10.9728, 0, 0,                         !- X,Y,Z Vertex 3 {m}
  -10.9728, 0, 3.048;                     !- X,Y,Z Vertex 4 {m}

OS:Surface,
  {d6a3d9f5-090a-44a0-8473-6c661e4cffd3}, !- Handle
  Surface 3,                              !- Name
  Wall,                                   !- Surface Type
  ,                                       !- Construction Name
  {b0b89e62-3aed-4e03-8de1-a52029fd1291}, !- Space Name
  Outdoors,                               !- Outside Boundary Condition
  ,                                       !- Outside Boundary Condition Object
  SunExposed,                             !- Sun Exposure
  WindExposed,                            !- Wind Exposure
  ,                                       !- View Factor to Ground
  ,                                       !- Number of Vertices
  0, 6.096, 3.048,                        !- X,Y,Z Vertex 1 {m}
  0, 6.096, 0,                            !- X,Y,Z Vertex 2 {m}
  -10.9728, 6.096, 0,                     !- X,Y,Z Vertex 3 {m}
  -10.9728, 6.096, 3.048;                 !- X,Y,Z Vertex 4 {m}

OS:Surface,
  {cb4332b9-c4bc-46fc-95a8-c593d5d875e7}, !- Handle
  Surface 4,                              !- Name
  Wall,                                   !- Surface Type
  ,                                       !- Construction Name
  {b0b89e62-3aed-4e03-8de1-a52029fd1291}, !- Space Name
  Outdoors,                               !- Outside Boundary Condition
  ,                                       !- Outside Boundary Condition Object
  SunExposed,                             !- Sun Exposure
  WindExposed,                            !- Wind Exposure
  ,                                       !- View Factor to Ground
  ,                                       !- Number of Vertices
  0, 0, 3.048,                            !- X,Y,Z Vertex 1 {m}
  0, 0, 0,                                !- X,Y,Z Vertex 2 {m}
  0, 6.096, 0,                            !- X,Y,Z Vertex 3 {m}
  0, 6.096, 3.048;                        !- X,Y,Z Vertex 4 {m}

OS:Surface,
  {82e069d2-fad0-4816-b514-da5de87c6bb8}, !- Handle
  Surface 5,                              !- Name
  Wall,                                   !- Surface Type
  ,                                       !- Construction Name
  {b0b89e62-3aed-4e03-8de1-a52029fd1291}, !- Space Name
  Outdoors,                               !- Outside Boundary Condition
  ,                                       !- Outside Boundary Condition Object
  SunExposed,                             !- Sun Exposure
  WindExposed,                            !- Wind Exposure
  ,                                       !- View Factor to Ground
  ,                                       !- Number of Vertices
  -10.9728, 0, 3.048,                     !- X,Y,Z Vertex 1 {m}
  -10.9728, 0, 0,                         !- X,Y,Z Vertex 2 {m}
  0, 0, 0,                                !- X,Y,Z Vertex 3 {m}
  0, 0, 3.048;                            !- X,Y,Z Vertex 4 {m}

OS:Surface,
  {ddebdc71-f162-4a30-8669-e52700a6f318}, !- Handle
  Surface 6,                              !- Name
  RoofCeiling,                            !- Surface Type
  ,                                       !- Construction Name
  {b0b89e62-3aed-4e03-8de1-a52029fd1291}, !- Space Name
  Surface,                                !- Outside Boundary Condition
  {7791267f-67ca-4fd6-a357-5c89c115e28c}, !- Outside Boundary Condition Object
  NoSun,                                  !- Sun Exposure
  NoWind,                                 !- Wind Exposure
  ,                                       !- View Factor to Ground
  ,                                       !- Number of Vertices
  0, 0, 3.048,                            !- X,Y,Z Vertex 1 {m}
  0, 6.096, 3.048,                        !- X,Y,Z Vertex 2 {m}
  -10.9728, 6.096, 3.048,                 !- X,Y,Z Vertex 3 {m}
  -10.9728, 0, 3.048;                     !- X,Y,Z Vertex 4 {m}

OS:Space,
  {38bd3576-ac57-44b0-b912-8ea339ead673}, !- Handle
  sp-2-Space,                             !- Name
  ,                                       !- Space Type Name
  ,                                       !- Default Construction Set Name
  ,                                       !- Default Schedule Set Name
  ,                                       !- Direction of Relative North {deg}
  ,                                       !- X Origin {m}
  ,                                       !- Y Origin {m}
  ,                                       !- Z Origin {m}
  {81538a46-98ea-4df9-8a40-730995ea5a5d}, !- Building Story Name
  {98121f4c-7fac-43ca-9a30-2631fd8aef5e}; !- Thermal Zone Name

OS:Surface,
  {78433ff0-069a-4d8f-ab0b-fa23fbad2bc5}, !- Handle
  Surface 7,                              !- Name
  Floor,                                  !- Surface Type
  ,                                       !- Construction Name
  {38bd3576-ac57-44b0-b912-8ea339ead673}, !- Space Name
  Ground,                                 !- Outside Boundary Condition
  ,                                       !- Outside Boundary Condition Object
  NoSun,                                  !- Sun Exposure
  NoWind,                                 !- Wind Exposure
  ,                                       !- View Factor to Ground
  ,                                       !- Number of Vertices
  0, 0, 0,                                !- X,Y,Z Vertex 1 {m}
  0, 6.096, 0,                            !- X,Y,Z Vertex 2 {m}
  2.4384, 6.096, 0,                       !- X,Y,Z Vertex 3 {m}
  2.4384, 0, 0;                           !- X,Y,Z Vertex 4 {m}

OS:Surface,
  {3e97f0e6-de03-4ab6-aab2-0d3fb906808c}, !- Handle
  Surface 8,                              !- Name
  Wall,                                   !- Surface Type
  ,                                       !- Construction Name
  {38bd3576-ac57-44b0-b912-8ea339ead673}, !- Space Name
  Outdoors,                               !- Outside Boundary Condition
  ,                                       !- Outside Boundary Condition Object
  SunExposed,                             !- Sun Exposure
  WindExposed,                            !- Wind Exposure
  ,                                       !- View Factor to Ground
  ,                                       !- Number of Vertices
  0, 6.096, 3.9624,                       !- X,Y,Z Vertex 1 {m}
  0, 6.096, 3.048,                        !- X,Y,Z Vertex 2 {m}
  0, 0, 3.048,                            !- X,Y,Z Vertex 3 {m}
  0, 0, 3.9624;                           !- X,Y,Z Vertex 4 {m}

OS:Surface,
  {da677bf8-53d5-4d7f-88c7-83d6fc883b21}, !- Handle
  Surface 9,                              !- Name
  Wall,                                   !- Surface Type
  ,                                       !- Construction Name
  {38bd3576-ac57-44b0-b912-8ea339ead673}, !- Space Name
  Outdoors,                               !- Outside Boundary Condition
  ,                                       !- Outside Boundary Condition Object
  SunExposed,                             !- Sun Exposure
  WindExposed,                            !- Wind Exposure
  ,                                       !- View Factor to Ground
  ,                                       !- Number of Vertices
  2.4384, 6.096, 7.9248,                  !- X,Y,Z Vertex 1 {m}
  2.4384, 6.096, 0,                       !- X,Y,Z Vertex 2 {m}
  0, 6.096, 0,                            !- X,Y,Z Vertex 3 {m}
  0, 6.096, 7.9248;                       !- X,Y,Z Vertex 4 {m}

OS:Surface,
  {b544c63a-4040-455a-be52-0c51cbf7c035}, !- Handle
  Surface 10,                             !- Name
  Wall,                                   !- Surface Type
  ,                                       !- Construction Name
  {38bd3576-ac57-44b0-b912-8ea339ead673}, !- Space Name
  Outdoors,                               !- Outside Boundary Condition
  ,                                       !- Outside Boundary Condition Object
  SunExposed,                             !- Sun Exposure
  WindExposed,                            !- Wind Exposure
  ,                                       !- View Factor to Ground
  ,                                       !- Number of Vertices
  2.4384, 0, 7.9248,                      !- X,Y,Z Vertex 1 {m}
  2.4384, 0, 0,                           !- X,Y,Z Vertex 2 {m}
  2.4384, 6.096, 0,                       !- X,Y,Z Vertex 3 {m}
  2.4384, 6.096, 7.9248;                  !- X,Y,Z Vertex 4 {m}

OS:Surface,
  {8135c1c9-f565-4974-a96c-4e0031d8e383}, !- Handle
  Surface 11,                             !- Name
  Wall,                                   !- Surface Type
  ,                                       !- Construction Name
  {38bd3576-ac57-44b0-b912-8ea339ead673}, !- Space Name
  Outdoors,                               !- Outside Boundary Condition
  ,                                       !- Outside Boundary Condition Object
  SunExposed,                             !- Sun Exposure
  WindExposed,                            !- Wind Exposure
  ,                                       !- View Factor to Ground
  ,                                       !- Number of Vertices
  0, 0, 7.9248,                           !- X,Y,Z Vertex 1 {m}
  0, 0, 0,                                !- X,Y,Z Vertex 2 {m}
  2.4384, 0, 0,                           !- X,Y,Z Vertex 3 {m}
  2.4384, 0, 7.9248;                      !- X,Y,Z Vertex 4 {m}

OS:Surface,
  {0302c17b-8090-4d09-a40d-bd1d9db7adac}, !- Handle
  Surface 12,                             !- Name
  RoofCeiling,                            !- Surface Type
  ,                                       !- Construction Name
  {38bd3576-ac57-44b0-b912-8ea339ead673}, !- Space Name
  Outdoors,                               !- Outside Boundary Condition
  ,                                       !- Outside Boundary Condition Object
  SunExposed,                             !- Sun Exposure
  WindExposed,                            !- Wind Exposure
  ,                                       !- View Factor to Ground
  ,                                       !- Number of Vertices
  2.4384, 0, 7.9248,                      !- X,Y,Z Vertex 1 {m}
  2.4384, 6.096, 7.9248,                  !- X,Y,Z Vertex 2 {m}
  0, 6.096, 7.9248,                       !- X,Y,Z Vertex 3 {m}
  0, 0, 7.9248;                           !- X,Y,Z Vertex 4 {m}

OS:Space,
  {ac020a5f-88e1-450b-9de4-a62a99d2d867}, !- Handle
  sp-3-Space,                             !- Name
  ,                                       !- Space Type Name
  ,                                       !- Default Construction Set Name
  ,                                       !- Default Schedule Set Name
  ,                                       !- Direction of Relative North {deg}
  ,                                       !- X Origin {m}
  ,                                       !- Y Origin {m}
  ,                                       !- Z Origin {m}
  {5bf4d573-27f5-4562-96ef-8f51fd61e2ee}, !- Building Story Name
  {571ed128-138a-4f09-8930-337a2253ddad}; !- Thermal Zone Name

OS:Surface,
  {4a7b7568-fcc4-493d-b0cc-67430b3b731b}, !- Handle
  Surface 13,                             !- Name
  Floor,                                  !- Surface Type
  ,                                       !- Construction Name
  {ac020a5f-88e1-450b-9de4-a62a99d2d867}, !- Space Name
  Surface,                                !- Outside Boundary Condition
  {1ee5146d-c93c-46f7-9cba-aeb2d25e1db0}, !- Outside Boundary Condition Object
  NoSun,                                  !- Sun Exposure
  NoWind,                                 !- Wind Exposure
  ,                                       !- View Factor to Ground
  ,                                       !- Number of Vertices
  -10.9728, 0, 3.9624,                    !- X,Y,Z Vertex 1 {m}
  -10.9728, 6.096, 3.9624,                !- X,Y,Z Vertex 2 {m}
  0, 6.096, 3.9624,                       !- X,Y,Z Vertex 3 {m}
  0, 0, 3.9624;                           !- X,Y,Z Vertex 4 {m}

OS:Surface,
  {ce798676-5896-4fab-9db1-baa40ca121cd}, !- Handle
  Surface 14,                             !- Name
  Wall,                                   !- Surface Type
  ,                                       !- Construction Name
  {ac020a5f-88e1-450b-9de4-a62a99d2d867}, !- Space Name
  Outdoors,                               !- Outside Boundary Condition
  ,                                       !- Outside Boundary Condition Object
  SunExposed,                             !- Sun Exposure
  WindExposed,                            !- Wind Exposure
  ,                                       !- View Factor to Ground
  ,                                       !- Number of Vertices
  -10.9728, 6.096, 7.9248,                !- X,Y,Z Vertex 1 {m}
  -10.9728, 6.096, 3.9624,                !- X,Y,Z Vertex 2 {m}
  -10.9728, 0, 3.9624,                    !- X,Y,Z Vertex 3 {m}
  -10.9728, 0, 7.9248;                    !- X,Y,Z Vertex 4 {m}

OS:Surface,
  {d683ce12-80d1-4da6-8f15-b3b57dddd36c}, !- Handle
  Surface 15,                             !- Name
  Wall,                                   !- Surface Type
  ,                                       !- Construction Name
  {ac020a5f-88e1-450b-9de4-a62a99d2d867}, !- Space Name
  Outdoors,                               !- Outside Boundary Condition
  ,                                       !- Outside Boundary Condition Object
  SunExposed,                             !- Sun Exposure
  WindExposed,                            !- Wind Exposure
  ,                                       !- View Factor to Ground
  ,                                       !- Number of Vertices
  0, 6.096, 7.9248,                       !- X,Y,Z Vertex 1 {m}
  0, 6.096, 3.9624,                       !- X,Y,Z Vertex 2 {m}
  -10.9728, 6.096, 3.9624,                !- X,Y,Z Vertex 3 {m}
  -10.9728, 6.096, 7.9248;                !- X,Y,Z Vertex 4 {m}

OS:Surface,
  {b98da221-95fb-4862-8a51-8a9251d742fa}, !- Handle
  Surface 16,                             !- Name
  Wall,                                   !- Surface Type
  ,                                       !- Construction Name
  {ac020a5f-88e1-450b-9de4-a62a99d2d867}, !- Space Name
  Outdoors,                               !- Outside Boundary Condition
  ,                                       !- Outside Boundary Condition Object
  SunExposed,                             !- Sun Exposure
  WindExposed,                            !- Wind Exposure
  ,                                       !- View Factor to Ground
  ,                                       !- Number of Vertices
  0, 0, 7.9248,                           !- X,Y,Z Vertex 1 {m}
  0, 0, 3.9624,                           !- X,Y,Z Vertex 2 {m}
  0, 6.096, 3.9624,                       !- X,Y,Z Vertex 3 {m}
  0, 6.096, 7.9248;                       !- X,Y,Z Vertex 4 {m}

OS:Surface,
  {31bc0972-1e41-4f40-908d-ae0c0d9bdc36}, !- Handle
  Surface 17,                             !- Name
  Wall,                                   !- Surface Type
  ,                                       !- Construction Name
  {ac020a5f-88e1-450b-9de4-a62a99d2d867}, !- Space Name
  Outdoors,                               !- Outside Boundary Condition
  ,                                       !- Outside Boundary Condition Object
  SunExposed,                             !- Sun Exposure
  WindExposed,                            !- Wind Exposure
  ,                                       !- View Factor to Ground
  ,                                       !- Number of Vertices
  -10.9728, 0, 7.9248,                    !- X,Y,Z Vertex 1 {m}
  -10.9728, 0, 3.9624,                    !- X,Y,Z Vertex 2 {m}
  0, 0, 3.9624,                           !- X,Y,Z Vertex 3 {m}
  0, 0, 7.9248;                           !- X,Y,Z Vertex 4 {m}

OS:Surface,
  {055be281-5705-4797-8259-48db19c354b9}, !- Handle
  Surface 18,                             !- Name
  RoofCeiling,                            !- Surface Type
  ,                                       !- Construction Name
  {ac020a5f-88e1-450b-9de4-a62a99d2d867}, !- Space Name
  Outdoors,                               !- Outside Boundary Condition
  ,                                       !- Outside Boundary Condition Object
  SunExposed,                             !- Sun Exposure
  WindExposed,                            !- Wind Exposure
  ,                                       !- View Factor to Ground
  ,                                       !- Number of Vertices
  0, 0, 7.9248,                           !- X,Y,Z Vertex 1 {m}
  0, 6.096, 7.9248,                       !- X,Y,Z Vertex 2 {m}
  -10.9728, 6.096, 7.9248,                !- X,Y,Z Vertex 3 {m}
  -10.9728, 0, 7.9248;                    !- X,Y,Z Vertex 4 {m}

OS:Space,
  {a2b9499b-5f3e-429d-a2e1-d7aeb5016270}, !- Handle
  sp-4-Space,                             !- Name
  ,                                       !- Space Type Name
  ,                                       !- Default Construction Set Name
  ,                                       !- Default Schedule Set Name
  ,                                       !- Direction of Relative North {deg}
  ,                                       !- X Origin {m}
  ,                                       !- Y Origin {m}
  ,                                       !- Z Origin {m}
  {4ecb1dcf-795e-4bd8-8888-90b891818b19}, !- Building Story Name
  {b7fe6631-a27b-4de1-896b-451ccd3f9fb7}; !- Thermal Zone Name

OS:Surface,
  {7791267f-67ca-4fd6-a357-5c89c115e28c}, !- Handle
  Surface 19,                             !- Name
  Floor,                                  !- Surface Type
  ,                                       !- Construction Name
  {a2b9499b-5f3e-429d-a2e1-d7aeb5016270}, !- Space Name
  Surface,                                !- Outside Boundary Condition
  {ddebdc71-f162-4a30-8669-e52700a6f318}, !- Outside Boundary Condition Object
  NoSun,                                  !- Sun Exposure
  NoWind,                                 !- Wind Exposure
  ,                                       !- View Factor to Ground
  ,                                       !- Number of Vertices
  -10.9728, 0, 3.048,                     !- X,Y,Z Vertex 1 {m}
  -10.9728, 6.096, 3.048,                 !- X,Y,Z Vertex 2 {m}
  0, 6.096, 3.048,                        !- X,Y,Z Vertex 3 {m}
  0, 0, 3.048;                            !- X,Y,Z Vertex 4 {m}

OS:Surface,
  {78637173-5732-419c-ba43-fb30c0c1efa3}, !- Handle
  Surface 20,                             !- Name
  Wall,                                   !- Surface Type
  ,                                       !- Construction Name
  {a2b9499b-5f3e-429d-a2e1-d7aeb5016270}, !- Space Name
  Outdoors,                               !- Outside Boundary Condition
  ,                                       !- Outside Boundary Condition Object
  SunExposed,                             !- Sun Exposure
  WindExposed,                            !- Wind Exposure
  ,                                       !- View Factor to Ground
  ,                                       !- Number of Vertices
  -10.9728, 6.096, 3.9624,                !- X,Y,Z Vertex 1 {m}
  -10.9728, 6.096, 3.048,                 !- X,Y,Z Vertex 2 {m}
  -10.9728, 0, 3.048,                     !- X,Y,Z Vertex 3 {m}
  -10.9728, 0, 3.9624;                    !- X,Y,Z Vertex 4 {m}

OS:Surface,
  {1a2a1afe-0870-4da2-b966-87e4a4c42c68}, !- Handle
  Surface 21,                             !- Name
  Wall,                                   !- Surface Type
  ,                                       !- Construction Name
  {a2b9499b-5f3e-429d-a2e1-d7aeb5016270}, !- Space Name
  Outdoors,                               !- Outside Boundary Condition
  ,                                       !- Outside Boundary Condition Object
  SunExposed,                             !- Sun Exposure
  WindExposed,                            !- Wind Exposure
  ,                                       !- View Factor to Ground
  ,                                       !- Number of Vertices
  0, 6.096, 3.9624,                       !- X,Y,Z Vertex 1 {m}
  0, 6.096, 3.048,                        !- X,Y,Z Vertex 2 {m}
  -10.9728, 6.096, 3.048,                 !- X,Y,Z Vertex 3 {m}
  -10.9728, 6.096, 3.9624;                !- X,Y,Z Vertex 4 {m}

OS:Surface,
  {195a9701-473a-469b-ac65-e0f6f62eebb8}, !- Handle
  Surface 22,                             !- Name
  Wall,                                   !- Surface Type
  ,                                       !- Construction Name
  {a2b9499b-5f3e-429d-a2e1-d7aeb5016270}, !- Space Name
  Outdoors,                               !- Outside Boundary Condition
  ,                                       !- Outside Boundary Condition Object
  SunExposed,                             !- Sun Exposure
  WindExposed,                            !- Wind Exposure
  ,                                       !- View Factor to Ground
  ,                                       !- Number of Vertices
  0, 0, 3.9624,                           !- X,Y,Z Vertex 1 {m}
  0, 0, 3.048,                            !- X,Y,Z Vertex 2 {m}
  0, 6.096, 3.048,                        !- X,Y,Z Vertex 3 {m}
  0, 6.096, 3.9624;                       !- X,Y,Z Vertex 4 {m}

OS:Surface,
  {a7306565-80ff-4cd2-9969-50ce8bb428cd}, !- Handle
  Surface 23,                             !- Name
  Wall,                                   !- Surface Type
  ,                                       !- Construction Name
  {a2b9499b-5f3e-429d-a2e1-d7aeb5016270}, !- Space Name
  Outdoors,                               !- Outside Boundary Condition
  ,                                       !- Outside Boundary Condition Object
  SunExposed,                             !- Sun Exposure
  WindExposed,                            !- Wind Exposure
  ,                                       !- View Factor to Ground
  ,                                       !- Number of Vertices
  -10.9728, 0, 3.9624,                    !- X,Y,Z Vertex 1 {m}
  -10.9728, 0, 3.048,                     !- X,Y,Z Vertex 2 {m}
  0, 0, 3.048,                            !- X,Y,Z Vertex 3 {m}
  0, 0, 3.9624;                           !- X,Y,Z Vertex 4 {m}

OS:Surface,
  {1ee5146d-c93c-46f7-9cba-aeb2d25e1db0}, !- Handle
  Surface 24,                             !- Name
  RoofCeiling,                            !- Surface Type
  ,                                       !- Construction Name
  {a2b9499b-5f3e-429d-a2e1-d7aeb5016270}, !- Space Name
  Surface,                                !- Outside Boundary Condition
  {4a7b7568-fcc4-493d-b0cc-67430b3b731b}, !- Outside Boundary Condition Object
  NoSun,                                  !- Sun Exposure
  NoWind,                                 !- Wind Exposure
  ,                                       !- View Factor to Ground
  ,                                       !- Number of Vertices
  0, 0, 3.9624,                           !- X,Y,Z Vertex 1 {m}
  0, 6.096, 3.9624,                       !- X,Y,Z Vertex 2 {m}
  -10.9728, 6.096, 3.9624,                !- X,Y,Z Vertex 3 {m}
  -10.9728, 0, 3.9624;                    !- X,Y,Z Vertex 4 {m}

OS:ThermalZone,
  {98121f4c-7fac-43ca-9a30-2631fd8aef5e}, !- Handle
  sp-2-Zone,                              !- Name
  ,                                       !- Multiplier
  ,                                       !- Ceiling Height {m}
  ,                                       !- Volume {m3}
  ,                                       !- Floor Area {m2}
  ,                                       !- Zone Inside Convection Algorithm
  ,                                       !- Zone Outside Convection Algorithm
  ,                                       !- Zone Conditioning Equipment List Name
  {89e27df8-42fb-45ac-9fef-532448544b7c}, !- Zone Air Inlet Port List
  {1a8673de-de2e-4236-b484-9b8e0d29d637}, !- Zone Air Exhaust Port List
  {6368eccb-d5d3-4ab3-bb4e-ffaa5140f895}, !- Zone Air Node Name
  ,                                       !- Zone Return Air Node Name
  ,                                       !- Primary Daylighting Control Name
  ,                                       !- Fraction of Zone Controlled by Primary Daylighting Control
  ,                                       !- Secondary Daylighting Control Name
  ,                                       !- Fraction of Zone Controlled by Secondary Daylighting Control
  ,                                       !- Illuminance Map Name