
OS:Version,
  {22567dae-a45d-4630-b895-8e0d9d7479c5}, !- Handle
  1.12.2;                                 !- Version Identifier

OS:SpaceType,
  {5e798a1f-e720-49cc-ab70-4fa3ba66d345}, !- Handle
  189.1-2009 - Office - Lobby - CZ4-8,    !- Name
  ,                                       !- Default Construction Set Name
  {272c1c00-ae8d-4e3f-b514-f8c66a2ee7b3}, !- Default Schedule Set Name
  {3ed53f47-a5b2-40f5-8d8f-17f672f8c906}, !- Group Rendering Name
  {ec532acb-c5d0-4480-b542-14616353b9fa}, !- Design Specification Outdoor Air Object Name
  Office,                                 !- Standards Building Type
  Lobby;                                  !- Standards Space Type

OS:DefaultScheduleSet,
  {272c1c00-ae8d-4e3f-b514-f8c66a2ee7b3}, !- Handle
  189.1-2009 - Office - Lobby - CZ4-8 Schedule Set, !- Name
  ,                                       !- Hours of Operation Schedule Name
  {3a8d4a19-a57a-45c7-96b2-53544bcd922a}, !- Number of People Schedule Name
  {c890922f-9c95-47aa-b37f-69a72b4d3fb6}, !- People Activity Level Schedule Name
  {a723853e-7cad-4c24-9f1c-1337422e9616}, !- Lighting Schedule Name
  {ceb7d2de-f6e8-48e4-b904-694026122363}, !- Electric Equipment Schedule Name
  ,                                       !- Gas Equipment Schedule Name
  ,                                       !- Hot Water Equipment Schedule Name
  {9aebe931-2b43-4e1f-bac1-ddd2f06c2aa8}, !- Infiltration Schedule Name
  ,                                       !- Steam Equipment Schedule Name
  ;                                       !- Other Equipment Schedule Name

OS:Rendering:Color,
  {3ed53f47-a5b2-40f5-8d8f-17f672f8c906}, !- Handle
  Rendering Color 23,                     !- Name
  230,                                    !- Rendering Red Value
  157,                                    !- Rendering Green Value
  120;                                    !- Rendering Blue Value

OS:DesignSpecification:OutdoorAir,
  {ec532acb-c5d0-4480-b542-14616353b9fa}, !- Handle
  189.1-2009 - Office - Lobby - CZ4-8 Ventilation, !- Name
  Sum,                                    !- Outdoor Air Method
  0.007079211648,                         !- Outdoor Air Flow per Person {m3/s-person}
  ,                                       !- Outdoor Air Flow per Floor Area {m3/s-m2}
  ,                                       !- Outdoor Air Flow Rate {m3/s}
  ,                                       !- Outdoor Air Flow Air Changes per Hour {1/hr}
  ;                                       !- Outdoor Air Flow Rate Fraction Schedule Name

OS:Schedule:Ruleset,
  {3a8d4a19-a57a-45c7-96b2-53544bcd922a}, ! Handle
  Office Misc Occ,                        ! Name
  {504bce35-e578-4787-bb47-4c0985899eb2}, ! Schedule Type Limits Name
  {e9842d22-8fa7-42f3-81e4-1eeae4dde40b}, ! Default Day Schedule Name
  {3efe3968-0a89-4916-b0fe-977706e13984}, ! Summer Design Day Schedule Name
  {7686b969-3927-48b3-8e9d-d082d1986887}; ! Winter Design Day Schedule Name

OS:Schedule:Day,
  {e9842d22-8fa7-42f3-81e4-1eeae4dde40b}, ! Handle
  Office Bldg Occ Default Schedule 1,     ! Name
  {504bce35-e578-4787-bb47-4c0985899eb2}, ! Schedule Type Limits Name
  ,                                       ! Interpolate to Timestep
  6,                                      !- Hour 1
  0,                                      !- Minute 1
  0,                                      !- Value Until Time 1
  7,                                      !- Hour 2
  0,                                      !- Minute 2
  0.100000001490116,                      !- Value Until Time 2
  8,                                      !- Hour 3
  0,                                      !- Minute 3
  0.200000002980232,                      !- Value Until Time 3
  20,                                     !- Hour 4
  0,                                      !- Minute 4
  0.400000005960464,                      !- Value Until Time 4
  22,                                     !- Hour 5
  0,                                      !- Minute 5
  0.100000001490116,                      !- Value Until Time 5
  24,                                     !- Hour 6
  0,                                      !- Minute 6
  0.0500000007450581;                     !- Value Until Time 6

OS:Schedule:Day,
  {3efe3968-0a89-4916-b0fe-977706e13984}, ! Handle
  Office Bldg Occ Summer Design Day 1,    ! Name
  {504bce35-e578-4787-bb47-4c0985899eb2}, ! Schedule Type Limits Name
  ,                                       ! Interpolate to Timestep
  6,                                      ! Hour 1
  0,                                      ! Minute 1
  0,                                      ! Value Until Time 1
  22,                                     ! Hour 2
  0,                                      ! Minute 2
  1,                                      ! Value Until Time 2
  24,                                     ! Hour 3
  0,                                      ! Minute 3
  0.050000000000000003;                   ! Value Until Time 3

OS:Schedule:Day,
  {7686b969-3927-48b3-8e9d-d082d1986887}, ! Handle
  Office Bldg Occ Winter Design Day 1,    ! Name
  {504bce35-e578-4787-bb47-4c0985899eb2}, ! Schedule Type Limits Name
  ,                                       ! Interpolate to Timestep
  24,                                     ! Hour 1
  0,                                      ! Minute 1
  0;                                      ! Value Until Time 1

OS:Schedule:Rule,
  {c8e809ff-6925-48da-8b53-09e0696d5b62}, ! Handle
  Office Misc Occ Rule 1,                 ! Name
  {3a8d4a19-a57a-45c7-96b2-53544bcd922a}, ! Schedule Ruleset Name
  0,                                      ! Rule Order
  {9eb8d3f6-76f3-4eb3-8a0f-2fcb8146300b}, ! Day Schedule Name
  Yes,                                    ! Apply Sunday
  No,                                     ! Apply Monday
  No,                                     ! Apply Tuesday
  No,                                     ! Apply Wednesday
  No,                                     ! Apply Thursday
  No,                                     ! Apply Friday
  No,                                     ! Apply Saturday
  ,                                       ! Apply Holiday
  DateRange,                              ! Date Specification Type
  1,                                      ! Start Month
  1,                                      ! Start Day
  12,                                     ! End Month
  31;                                     ! End Day

OS:Schedule:Rule,
  {419bc569-547d-445b-b8bc-5e7b507b202f}, ! Handle
  Office Misc Occ Rule 2,                 ! Name
  {3a8d4a19-a57a-45c7-96b2-53544bcd922a}, ! Schedule Ruleset Name
  1,                                      ! Rule Order
  {19647f00-1f56-4695-9718-7d7c00593278}, ! Day Schedule Name
  No,                                     ! Apply Sunday
  No,                                     ! Apply Monday
  No,                                     ! Apply Tuesday
  No,                                     ! Apply Wednesday
  No,                                     ! Apply Thursday
  No,                                     ! Apply Friday
  Yes,                                    ! Apply Saturday
  ,                                       ! Apply Holiday
  DateRange,                              ! Date Specification Type
  1,                                      ! Start Month
  1,                                      ! Start Day
  12,                                     ! End Month
  31;                                     ! End Day

OS:Schedule:Day,
  {9eb8d3f6-76f3-4eb3-8a0f-2fcb8146300b}, ! Handle
  Office Bldg Occ Rule 1 Day Schedule 1,  ! Name
  {504bce35-e578-4787-bb47-4c0985899eb2}, ! Schedule Type Limits Name
  ,                                       ! Interpolate to Timestep
  24,                                     ! Hour 1
  0,                                      ! Minute 1
  0;                                      ! Value Until Time 1

OS:Schedule:Day,
  {19647f00-1f56-4695-9718-7d7c00593278}, ! Handle
  Office Bldg Occ Rule 2 Day Schedule 1,  ! Name
  {504bce35-e578-4787-bb47-4c0985899eb2}, ! Schedule Type Limits Name
  ,                                       ! Interpolate to Timestep
  6,                                      !- Hour 1
  0,                                      !- Minute 1
  0,                                      !- Value Until Time 1
  8,                                      !- Hour 2
  0,                                      !- Minute 2
  0.100000001490116,                      !- Value Until Time 2
  14,                                     !- Hour 3
  0,                                      !- Minute 3
  0.25,                                   !- Value Until Time 3
  17,                                     !- Hour 4
  0,                                      !- Minute 4
  0.100000001490116,                      !- Value Until Time 4
  24,                                     !- Hour 5
  0,                                      !- Minute 5
  0;                                      !- Value Until Time 5

OS:Schedule:Ruleset,
  {c890922f-9c95-47aa-b37f-69a72b4d3fb6}, ! Handle
  Office Activity,                        ! Name
  {ea87bf2a-0de0-4430-ae77-0223f7ffa5c2}, ! Schedule Type Limits Name
  {a3a23396-1a6d-4d6c-b2df-7a1b6f282baf}, ! Default Day Schedule Name
  {5cf07480-6ecd-44d7-88dd-33342001a912}, ! Summer Design Day Schedule Name
  {2607dd3f-2d71-4138-9dab-ee284cf418e0}; ! Winter Design Day Schedule Name

OS:Schedule:Day,
  {a3a23396-1a6d-4d6c-b2df-7a1b6f282baf}, ! Handle
  Office Activity Default Schedule,       ! Name
  {ea87bf2a-0de0-4430-ae77-0223f7ffa5c2}, ! Schedule Type Limits Name
  ,                                       ! Interpolate to Timestep
  24,                                     !- Hour 1
  0,                                      !- Minute 1
  132;                                    !- Value Until Time 1

OS:Schedule:Day,
  {5cf07480-6ecd-44d7-88dd-33342001a912}, ! Handle
  Office Activity Summer Design Day,      ! Name
  {ea87bf2a-0de0-4430-ae77-0223f7ffa5c2}, ! Schedule Type Limits Name
  ,                                       ! Interpolate to Timestep
  24,                                     !- Hour 1
  0,                                      !- Minute 1
  132;                                    !- Value Until Time 1

OS:Schedule:Day,
  {2607dd3f-2d71-4138-9dab-ee284cf418e0}, ! Handle
  Office Activity Winter Design Day,      ! Name
  {ea87bf2a-0de0-4430-ae77-0223f7ffa5c2}, ! Schedule Type Limits Name
  ,                                       ! Interpolate to Timestep
  24,                                     !- Hour 1
  0,                                      !- Minute 1
  132;                                    !- Value Until Time 1

OS:Schedule:Ruleset,
  {a723853e-7cad-4c24-9f1c-1337422e9616}, ! Handle
  Office Bldg Light,                      ! Name
  {504bce35-e578-4787-bb47-4c0985899eb2}, ! Schedule Type Limits Name
  {a3291725-6bd1-410d-ab38-ed01ad059d59}, ! Default Day Schedule Name
  {4e16891c-19a6-4e19-9c2d-2c2c4d07fc68}, ! Summer Design Day Schedule Name
  {57f6849c-bdab-42ea-b4c6-4d25e2e54fe5}; ! Winter Design Day Schedule Name

OS:Schedule:Day,
  {a3291725-6bd1-410d-ab38-ed01ad059d59}, ! Handle
  Office Bldg Light Default Schedule,     ! Name
  {504bce35-e578-4787-bb47-4c0985899eb2}, ! Schedule Type Limits Name
  ,                                       ! Interpolate to Timestep
  5,                                      !- Hour 1
  0,                                      !- Minute 1
  0.05,                                   !- Value Until Time 1
  7,                                      !- Hour 2
  0,                                      !- Minute 2
  0.1,                                    !- Value Until Time 2
  8,                                      !- Hour 3
  0,                                      !- Minute 3
  0.3,                                    !- Value Until Time 3
  17,                                     !- Hour 4
  0,                                      !- Minute 4
  0.9,                                    !- Value Until Time 4
  18,                                     !- Hour 5
  0,                                      !- Minute 5
  0.7,                                    !- Value Until Time 5
  20,                                     !- Hour 6
  0,                                      !- Minute 6
  0.5,                                    !- Value Until Time 6
  22,                                     !- Hour 7
  0,                                      !- Minute 7
  0.3,                                    !- Value Until Time 7
  23,                                     !- Hour 8
  0,                                      !- Minute 8
  0.1,                                    !- Value Until Time 8
  24,                                     !- Hour 9
  0,                                      !- Minute 9
  0.05;                                   !- Value Until Time 9

OS:Schedule:Day,
  {4e16891c-19a6-4e19-9c2d-2c2c4d07fc68}, ! Handle
  Office Bldg Light Summer Design Day,    ! Name
  {504bce35-e578-4787-bb47-4c0985899eb2}, ! Schedule Type Limits Name
  ,                                       ! Interpolate to Timestep
  24,                                     ! Hour 1
  0,                                      ! Minute 1
  1;                                      ! Value Until Time 1

OS:Schedule:Day,
  {57f6849c-bdab-42ea-b4c6-4d25e2e54fe5}, ! Handle
  Office Bldg Light Winter Design Day,    ! Name
  {504bce35-e578-4787-bb47-4c0985899eb2}, ! Schedule Type Limits Name
  ,                                       ! Interpolate to Timestep
  24,                                     ! Hour 1
  0,                                      ! Minute 1
  0;                                      ! Value Until Time 1

OS:Schedule:Rule,
  {b23027ab-d8d1-4a80-9cbe-991224b61a27}, ! Handle
  Office Bldg Light Rule 1,               ! Name
  {a723853e-7cad-4c24-9f1c-1337422e9616}, ! Schedule Ruleset Name
  0,                                      ! Rule Order
  {197c2aff-efc5-416c-91e7-51b7c5eac76d}, ! Day Schedule Name
  Yes,                                    ! Apply Sunday
  No,                                     ! Apply Monday
  No,                                     ! Apply Tuesday
  No,                                     ! Apply Wednesday
  No,                                     ! Apply Thursday
  No,                                     ! Apply Friday
  No,                                     ! Apply Saturday
  ,                                       ! Apply Holiday
  DateRange,                              ! Date Specification Type
  1,                                      ! Start Month
  1,                                      ! Start Day
  12,                                     ! End Month
  31;                                     ! End Day

OS:Schedule:Rule,
  {feaf6113-15ad-48e6-9f74-b0d28d22433a}, ! Handle
  Office Bldg Light Rule 2,               ! Name
  {a723853e-7cad-4c24-9f1c-1337422e9616}, ! Schedule Ruleset Name
  1,                                      ! Rule Order
  {f80ee056-6fc8-484f-bde0-6c0e2301882b}, ! Day Schedule Name
  No,                                     ! Apply Sunday
  No,                                     ! Apply Monday
  No,                                     ! Apply Tuesday
  No,                                     ! Apply Wednesday
  No,                                     ! Apply Thursday
  No,                                     ! Apply Friday
  Yes,                                    ! Apply Saturday
  ,                                       ! Apply Holiday
  DateRange,                              ! Date Specification Type
  1,                                      ! Start Month
  1,                                      ! Start Day
  12,                                     ! End Month
  31;                                     ! End Day

OS:Schedule:Day,
  {197c2aff-efc5-416c-91e7-51b7c5eac76d}, ! Handle
  Office Bldg Light Rule 1 Day Schedule,  ! Name
  {504bce35-e578-4787-bb47-4c0985899eb2}, ! Schedule Type Limits Name
  ,                                       ! Interpolate to Timestep
  24,                                     ! Hour 1
  0,                                      ! Minute 1
  0.050000000000000003;                   ! Value Until Time 1

OS:Schedule:Day,
  {f80ee056-6fc8-484f-bde0-6c0e2301882b}, ! Handle
  Office Bldg Light Rule 2 Day Schedule,  ! Name
  {504bce35-e578-4787-bb47-4c0985899eb2}, ! Schedule Type Limits Name
  ,                                       ! Interpolate to Timestep
  6,                                      ! Hour 1
  0,                                      ! Minute 1
  0.050000000000000003,                   ! Value Until Time 1
  8,                                      ! Hour 2
  0,                                      ! Minute 2
  0.10000000000000001,                    ! Value Until Time 2
  14,                                     ! Hour 3
  0,                                      ! Minute 3
  0.5,                                    ! Value Until Time 3
  17,                                     ! Hour 4
  0,                                      ! Minute 4
  0.14999999999999999,                    ! Value Until Time 4
  24,                                     ! Hour 5
  0,                                      ! Minute 5
  0.050000000000000003;                   ! Value Until Time 5

OS:Schedule:Ruleset,
  {ceb7d2de-f6e8-48e4-b904-694026122363}, ! Handle
  Office Bldg Equip,                      ! Name
  {504bce35-e578-4787-bb47-4c0985899eb2}, ! Schedule Type Limits Name
  {2657a176-235f-4073-bdf2-4af290bbf62a}, ! Default Day Schedule Name
  {db3cd290-6697-4ced-bfde-eb281ddd952d}, ! Summer Design Day Schedule Name
  {04db5552-9a43-46b8-9ec4-245af95a83c1}; ! Winter Design Day Schedule Name

OS:Schedule:Day,
  {2657a176-235f-4073-bdf2-4af290bbf62a}, ! Handle
  Office Bldg Equip Default Schedule,     ! Name
  {504bce35-e578-4787-bb47-4c0985899eb2}, ! Schedule Type Limits Name
  ,                                       ! Interpolate to Timestep
  8,                                      !- Hour 1
  0,                                      !- Minute 1
  0.4,                                    !- Value Until Time 1
  12,                                     !- Hour 2
  0,                                      !- Minute 2
  0.9,                                    !- Value Until Time 2
  13,                                     !- Hour 3
  0,                                      !- Minute 3
  0.8,                                    !- Value Until Time 3
  17,                                     !- Hour 4
  0,                                      !- Minute 4
  0.9,                                    !- Value Until Time 4
  18,                                     !- Hour 5
  0,                                      !- Minute 5
  0.8,                                    !- Value Until Time 5
  20,                                     !- Hour 6
  0,                                      !- Minute 6
  0.6,                                    !- Value Until Time 6
  22,                                     !- Hour 7
  0,                                      !- Minute 7
  0.5,                                    !- Value Until Time 7
  24,                                     !- Hour 8
  0,                                      !- Minute 8
  0.4;                                    !- Value Until Time 8

OS:Schedule:Day,
  {db3cd290-6697-4ced-bfde-eb281ddd952d}, ! Handle
  Office Bldg Equip Summer Design Day,    ! Name
  {504bce35-e578-4787-bb47-4c0985899eb2}, ! Schedule Type Limits Name
  ,                                       ! Interpolate to Timestep
  24,                                     ! Hour 1
  0,                                      ! Minute 1
  1;                                      ! Value Until Time 1

OS:Schedule:Day,
  {04db5552-9a43-46b8-9ec4-245af95a83c1}, ! Handle
  Office Bldg Equip Winter Design Day,    ! Name
  {504bce35-e578-4787-bb47-4c0985899eb2}, ! Schedule Type Limits Name
  ,                                       ! Interpolate to Timestep
  24,                                     ! Hour 1
  0,                                      ! Minute 1
  0;                                      ! Value Until Time 1

OS:Schedule:Rule,
  {9d53fc61-7ef9-42b9-abd8-102dfa05ddb2}, ! Handle
  Office Bldg Equip Rule 1,               ! Name
  {ceb7d2de-f6e8-48e4-b904-694026122363}, ! Schedule Ruleset Name
  0,                                      ! Rule Order
  {24d9ea8e-6d0a-4d52-8759-dd1efa3ee2f9}, ! Day Schedule Name
  Yes,                                    ! Apply Sunday
  No,                                     ! Apply Monday
  No,                                     ! Apply Tuesday
  No,                                     ! Apply Wednesday
  No,                                     ! Apply Thursday
  No,                                     ! Apply Friday
  No,                                     ! Apply Saturday
  ,                                       ! Apply Holiday
  DateRange,                              ! Date Specification Type
  1,                                      ! Start Month
  1,                                      ! Start Day
  12,                                     ! End Month
  31;                                     ! End Day

OS:Schedule:Rule,
  {b66121ba-b2db-4910-89b9-2f94c76eaa18}, ! Handle
  Office Bldg Equip Rule 2,               ! Name
  {ceb7d2de-f6e8-48e4-b904-694026122363}, ! Schedule Ruleset Name
  1,                                      ! Rule Order
  {e8e919aa-c54f-40d4-8b28-08edaeb3aff2}, ! Day Schedule Name
  No,                                     ! Apply Sunday
  No,                                     ! Apply Monday
  No,                                     ! Apply Tuesday
  No,                                     ! Apply Wednesday
  No,                                     ! Apply Thursday
  No,                                     ! Apply Friday
  Yes,                                    ! Apply Saturday
  ,                                       ! Apply Holiday
  DateRange,                              ! Date Specification Type
  1,                                      ! Start Month
  1,                                      ! Start Day
  12,                                     ! End Month
  31;                                     ! End Day

OS:Schedule:Day,
  {24d9ea8e-6d0a-4d52-8759-dd1efa3ee2f9}, ! Handle
  Office Bldg Equip Rule 1 Day Schedule,  ! Name
  {504bce35-e578-4787-bb47-4c0985899eb2}, ! Schedule Type Limits Name
  ,                                       ! Interpolate to Timestep
  24,                                     ! Hour 1
  0,                                      ! Minute 1
  0.29999999999999999;                    ! Value Until Time 1

OS:Schedule:Day,
  {e8e919aa-c54f-40d4-8b28-08edaeb3aff2}, ! Handle
  Office Bldg Equip Rule 2 Day Schedule,  ! Name
  {504bce35-e578-4787-bb47-4c0985899eb2}, ! Schedule Type Limits Name
  ,                                       ! Interpolate to Timestep
  6,                                      ! Hour 1
  0,                                      ! Minute 1
  0.29999999999999999,                    ! Value Until Time 1
  8,                                      ! Hour 2
  0,                                      ! Minute 2
  0.40000000000000002,                    ! Value Until Time 2
  14,                                     ! Hour 3
  0,                                      ! Minute 3
  0.5,                                    ! Value Until Time 3
  17,                                     ! Hour 4
  0,                                      ! Minute 4
  0.34999999999999998,                    ! Value Until Time 4
  24,                                     ! Hour 5
  0,                                      ! Minute 5
  0.29999999999999999;                    ! Value Until Time 5

OS:Schedule:Ruleset,
  {9aebe931-2b43-4e1f-bac1-ddd2f06c2aa8}, ! Handle
  Office Infil Quarter On,                ! Name
  {504bce35-e578-4787-bb47-4c0985899eb2}, ! Schedule Type Limits Name
  {d2338acf-9dde-4bfc-aa20-9a85f517509b}, ! Default Day Schedule Name
  {7da3071d-b67d-4f87-8369-37e5e76ab7f4}, ! Summer Design Day Schedule Name
  {c7b2f88b-d3f2-45d7-b072-2bf2218c6815}; ! Winter Design Day Schedule Name

OS:Schedule:Day,
  {d2338acf-9dde-4bfc-aa20-9a85f517509b}, ! Handle
  Office Infil Quarter On Default Schedule, ! Name
  {504bce35-e578-4787-bb47-4c0985899eb2}, ! Schedule Type Limits Name
  ,                                       ! Interpolate to Timestep
  6,                                      !- Hour 1
  0,                                      !- Minute 1
  1,                                      !- Value Until Time 1
  22,                                     !- Hour 2
  0,                                      !- Minute 2
  0.25,                                   !- Value Until Time 2
  24,                                     !- Hour 3
  0,                                      !- Minute 3
  1;                                      !- Value Until Time 3

OS:Schedule:Day,
  {7da3071d-b67d-4f87-8369-37e5e76ab7f4}, ! Handle
  Office Infil Quarter On Summer Design Day, ! Name
  {504bce35-e578-4787-bb47-4c0985899eb2}, ! Schedule Type Limits Name
  ,                                       ! Interpolate to Timestep
  6,                                      ! Hour 1
  0,                                      ! Minute 1
  1,                                      ! Value Until Time 1
  22,                                     ! Hour 2
  0,                                      ! Minute 2
  0.25,                                   ! Value Until Time 2
  24,                                     ! Hour 3
  0,                                      ! Minute 3
  1;                                      ! Value Until Time 3

OS:Schedule:Day,
  {c7b2f88b-d3f2-45d7-b072-2bf2218c6815}, ! Handle
  Office Infil Quarter On Winter Design Day, ! Name
  {504bce35-e578-4787-bb47-4c0985899eb2}, ! Schedule Type Limits Name
  ,                                       ! Interpolate to Timestep
  6,                                      ! Hour 1
  0,                                      ! Minute 1
  1,                                      ! Value Until Time 1
  18,                                     ! Hour 2
  0,                                      ! Minute 2
  0.25,                                   ! Value Until Time 2
  24,                                     ! Hour 3
  0,                                      ! Minute 3
  1;                                      ! Value Until Time 3

OS:Schedule:Rule,
  {a22d4cf9-ab22-4f37-a865-8fe4301e8474}, ! Handle
  Office Infil Quarter On Rule 1,         ! Name
  {9aebe931-2b43-4e1f-bac1-ddd2f06c2aa8}, ! Schedule Ruleset Name
  0,                                      ! Rule Order
  {780438ef-275a-4a81-9bc6-e951dcba4ac8}, ! Day Schedule Name
  Yes,                                    ! Apply Sunday
  No,                                     ! Apply Monday
  No,                                     ! Apply Tuesday
  No,                                     ! Apply Wednesday
  No,                                     ! Apply Thursday
  No,                                     ! Apply Friday
  No,                                     ! Apply Saturday
  ,                                       ! Apply Holiday
  DateRange,                              ! Date Specification Type
  1,                                      ! Start Month
  1,                                      ! Start Day
  12,                                     ! End Month
  31;                                     ! End Day

OS:Schedule:Rule,
  {9d1530d6-acdf-4677-bd53-2484ac0a7e98}, ! Handle
  Office Infil Quarter On Rule 2,         ! Name
  {9aebe931-2b43-4e1f-bac1-ddd2f06c2aa8}, ! Schedule Ruleset Name
  1,                                      ! Rule Order
  {e68b6f06-0ff8-43df-b7e7-3e65790b5c61}, ! Day Schedule Name
  No,                                     ! Apply Sunday
  No,                                     ! Apply Monday
  No,                                     ! Apply Tuesday
  No,                                     ! Apply Wednesday
  No,                                     ! Apply Thursday
  No,                                     ! Apply Friday
  Yes,                                    ! Apply Saturday
  ,                                       ! Apply Holiday
  DateRange,                              ! Date Specification Type
  1,                                      ! Start Month
  1,                                      ! Start Day
  12,                                     ! End Month
  31;                                     ! End Day

OS:Schedule:Day,
  {780438ef-275a-4a81-9bc6-e951dcba4ac8}, ! Handle
  Office Infil Quarter On Rule 1 Day Schedule, ! Name
  {504bce35-e578-4787-bb47-4c0985899eb2}, ! Schedule Type Limits Name
  ,                                       ! Interpolate to Timestep
  24,                                     ! Hour 1
  0,                                      ! Minute 1
  1;                                      ! Value Until Time 1

OS:Schedule:Day,
  {e68b6f06-0ff8-43df-b7e7-3e65790b5c61}, ! Handle
  Office Infil Quarter On Rule 2 Day Schedule, ! Name
  {504bce35-e578-4787-bb47-4c0985899eb2}, ! Schedule Type Limits Name
  ,                                       ! Interpolate to Timestep
  6,                                      ! Hour 1
  0,                                      ! Minute 1
  1,                                      ! Value Until Time 1
  18,                                     ! Hour 2
  0,                                      ! Minute 2
  0.25,                                   ! Value Until Time 2
  24,                                     ! Hour 3
  0,                                      ! Minute 3
  1;                                      ! Value Until Time 3

OS:ScheduleTypeLimits,
  {504bce35-e578-4787-bb47-4c0985899eb2}, ! Handle
  Fraction,                               ! Name