
OS:Version,
  {7b0c4d15-9736-4c30-a751-28f1d40d456b}, !- Handle
  1.9.0;                                  !- Version Identifier

OS:Facility,
  {5defcbb3-cccb-481c-907f-73e1a1752ea0}; !- Handle

OS:Building,
  {c9589726-6c4f-4a8a-b6ad-9b3197b19aa5}, !- Handle
  Building 1,                             !- Name
  ,                                       !- Building Sector Type
  ,                                       !- North Axis {deg}
  ,                                       !- Nominal Floor to Floor Height {m}
  ,                                       !- Space Type Name
  ,                                       !- Default Construction Set Name
  ;                                       !- Default Schedule Set Name

OS:BuildingStory,
  {e47b6db5-3b8a-46b7-ab48-d09d5d537309}, !- Handle
  Level 1,                                !- Name
  ,                                       !- Nominal Z Coordinate {m}
  ,                                       !- Nominal Floor to Floor Height {m}
  ,                                       !- Default Construction Set Name
  ,                                       !- Default Schedule Set Name
  ;                                       !- Group Rendering Name

OS:BuildingStory,
  {07419d01-2360-46a5-a401-931f47ef8a05}, !- Handle
  Level 1 Plenum,                         !- Name
  ,                                       !- Nominal Z Coordinate {m}
  3.048,                                  !- Nominal Floor to Floor Height {m}
  ,                                       !- Default Construction Set Name
  ,                                       !- Default Schedule Set Name
  ;                                       !- Group Rendering Name

OS:BuildingStory,
  {53e11aca-d248-4019-8ee1-9008a45d3fcd}, !- Handle
  Level 2,                                !- Name
  ,                                       !- Nominal Z Coordinate {m}
  3.9624,                                 !- Nominal Floor to Floor Height {m}
  ,                                       !- Default Construction Set Name
  ,                                       !- Default Schedule Set Name
  ;                                       !- Group Rendering Name

OS:BuildingStory,
  {39d9af0e-0c2a-4294-89df-7e76d6fd5168}, !- Handle
  Level 2 Plenum,                         !- Name
  ,                                       !- Nominal Z Coordinate {m}
  7.0104,                                 !- Nominal Floor to Floor Height {m}
  ,                                       !- Default Construction Set Name
  ,                                       !- Default Schedule Set Name
  ;                                       !- Group Rendering Name

OS:BuildingStory,
  {f0b193c9-8ac2-42ba-958a-8b7cb9f9aa53}, !- Handle
  Level 3,                                !- Name
  ,                                       !- Nominal Z Coordinate {m}
  7.9248,                                 !- Nominal Floor to Floor Height {m}
  ,                                       !- Default Construction Set Name
  ,                                       !- Default Schedule Set Name
  ;                                       !- Group Rendering Name

OS:Space,
  {60652d98-3ac5-46d4-8621-044c726d4563}, !- Handle
  sp-1-Space,                             !- Name
  ,                                       !- Space Type Name
  ,                                       !- Default Construction Set Name
  ,                                       !- Default Schedule Set Name
  ,                                       !- Direction of Relative North {deg}
  ,                                       !- X Origin {m}
  ,                                       !- Y Origin {m}
  ,                                       !- Z Origin {m}
  {e47b6db5-3b8a-46b7-ab48-d09d5d537309}, !- Building Story Name
  {3ad08b3d-ef70-4f65-a58e-41f264fb40c7}; !- Thermal Zone Name

OS:Space,
  {90ff630e-fb79-4f56-a875-27ae9746b8c1}, !- Handle
  sp-4-Space,                             !- Name
  ,                                       !- Space Type Name
  ,                                       !- Default Construction Set Name
  ,                                       !- Default Schedule Set Name
  ,                                       !- Direction of Relative North {deg}
  ,                                       !- X Origin {m}
  ,                                       !- Y Origin {m}
  ,                                       !- Z Origin {m}
  {07419d01-2360-46a5-a401-931f47ef8a05}, !- Building Story Name
  {552f3346-f22f-4212-8b44-4bb03a2c90c5}; !- Thermal Zone Name

OS:Space,
  {955f4978-a652-4426-af2c-d52cf62f72b9}, !- Handle
  sp-3-Space,                             !- Name
  ,                                       !- Space Type Name
  ,                                       !- Default Construction Set Name
  ,                                       !- Default Schedule Set Name
  ,                                       !- Direction of Relative North {deg}
  ,                                       !- X Origin {m}
  ,                                       !- Y Origin {m}
  ,                                       !- Z Origin {m}
  {53e11aca-d248-4019-8ee1-9008a45d3fcd}, !- Building Story Name
  {b273d99d-ded4-4f7b-9ed0-5ee544c6362a}; !- Thermal Zone Name

OS:Space,
  {37586cb3-aa80-4e8b-b648-ed720cfb3908}, !- Handle
  sp-2-Space,                             !- Name
  ,                                       !- Space Type Name
  ,                                       !- Default Construction Set Name
  ,                                       !- Default Schedule Set Name
  ,                                       !- Direction of Relative North {deg}
  ,                                       !- X Origin {m}
  ,                                       !- Y Origin {m}
  ,                                       !- Z Origin {m}
  {e47b6db5-3b8a-46b7-ab48-d09d5d537309}, !- Building Story Name
  {e8a8c4a3-3db5-4e32-85b7-ed413dfec766}; !- Thermal Zone Name

OS:Surface,
  {2bd2c718-f28e-46d6-85f4-5773414cad6f}, !- Handle
  Surface 1,                              !- Name
  Floor,                                  !- Surface Type
  ,                                       !- Construction Name
  {60652d98-3ac5-46d4-8621-044c726d4563}, !- Space Name
  Ground,                                 !- Outside Boundary Condition
  ,                                       !- Outside Boundary Condition Object
  NoSun,                                  !- Sun Exposure
  NoWind,                                 !- Wind Exposure
  ,                                       !- View Factor to Ground
  ,                                       !- Number of Vertices
  -10.9728, 0, 0,                         !- X,Y,Z Vertex 1 {m}
  -10.9728, 6.096, 0,                     !- X,Y,Z Vertex 2 {m}
  0, 6.096, 0,                            !- X,Y,Z Vertex 3 {m}
  0, 0, 0;                                !- X,Y,Z Vertex 4 {m}

OS:Surface,
  {b8c5d067-7697-4a94-99e9-24e0b2fccd3e}, !- Handle
  Surface 2,                              !- Name
  Wall,                                   !- Surface Type
  ,                                       !- Construction Name
  {60652d98-3ac5-46d4-8621-044c726d4563}, !- Space Name
  Outdoors,                               !- Outside Boundary Condition
  ,                                       !- Outside Boundary Condition Object
  SunExposed,                             !- Sun Exposure
  WindExposed,                            !- Wind Exposure
  ,                                       !- View Factor to Ground
  ,                                       !- Number of Vertices
  -10.9728, 0, 0,                         !- X,Y,Z Vertex 1 {m}
  -10.9728, 0, 3.048,                     !- X,Y,Z Vertex 2 {m}
  -10.9728, 6.096, 3.048,                 !- X,Y,Z Vertex 3 {m}
  -10.9728, 6.096, 0;                     !- X,Y,Z Vertex 4 {m}

OS:Surface,
  {00967b87-c8f9-4756-a2ad-51d47500a6f2}, !- Handle
  Surface 3,                              !- Name
  Wall,                                   !- Surface Type
  ,                                       !- Construction Name
  {60652d98-3ac5-46d4-8621-044c726d4563}, !- Space Name
  Outdoors,                               !- Outside Boundary Condition
  ,                                       !- Outside Boundary Condition Object
  SunExposed,                             !- Sun Exposure
  WindExposed,                            !- Wind Exposure
  ,                                       !- View Factor to Ground
  ,                                       !- Number of Vertices
  -10.9728, 6.096, 0,                     !- X,Y,Z Vertex 1 {m}
  -10.9728, 6.096, 3.048,                 !- X,Y,Z Vertex 2 {m}
  0, 6.096, 3.048,                        !- X,Y,Z Vertex 3 {m}
  0, 6.096, 0;                            !- X,Y,Z Vertex 4 {m}

OS:Surface,
  {a65326a3-8228-4f31-96b0-cd7dfd955e31}, !- Handle
  Surface 4,                              !- Name
  Wall,                                   !- Surface Type
  ,                                       !- Construction Name
  {60652d98-3ac5-46d4-8621-044c726d4563}, !- Space Name
  Surface,                                !- Outside Boundary Condition
  {5d0d72a7-f90e-4ae2-a7e1-ca017dbf368c}, !- Outside Boundary Condition Object
  NoSun,                                  !- Sun Exposure
  NoWind,                                 !- Wind Exposure
  ,                                       !- View Factor to Ground
  ,                                       !- Number of Vertices
  0, 6.096, 0,                            !- X,Y,Z Vertex 1 {m}
  0, 6.096, 3.048,                        !- X,Y,Z Vertex 2 {m}
  0, 0, 3.048,                            !- X,Y,Z Vertex 3 {m}
  0, 0, 0;                                !- X,Y,Z Vertex 4 {m}

OS:Surface,
  {9ae041a4-23df-4cdd-8c2d-5b2b98271a73}, !- Handle
  Surface 5,                              !- Name
  RoofCeiling,                            !- Surface Type
  ,                                       !- Construction Name
  {60652d98-3ac5-46d4-8621-044c726d4563}, !- Space Name
  Surface,                                !- Outside Boundary Condition
  {db21edfb-5ec0-47b5-a4e7-48926ec01286}, !- Outside Boundary Condition Object
  NoSun,                                  !- Sun Exposure
  NoWind,                                 !- Wind Exposure
  ,                                       !- View Factor to Ground
  ,                                       !- Number of Vertices
  0, 6.096, 3.048,                        !- X,Y,Z Vertex 1 {m}
  -10.9728, 6.096, 3.048,                 !- X,Y,Z Vertex 2 {m}
  -10.9728, 0, 3.048,                     !- X,Y,Z Vertex 3 {m}
  0, 0, 3.048;                            !- X,Y,Z Vertex 4 {m}

OS:Surface,
  {db21edfb-5ec0-47b5-a4e7-48926ec01286}, !- Handle
  Surface 6,                              !- Name
  Floor,                                  !- Surface Type
  ,                                       !- Construction Name
  {90ff630e-fb79-4f56-a875-27ae9746b8c1}, !- Space Name
  Surface,                                !- Outside Boundary Condition
  {9ae041a4-23df-4cdd-8c2d-5b2b98271a73}, !- Outside Boundary Condition Object
  NoSun,                                  !- Sun Exposure
  NoWind,                                 !- Wind Exposure
  ,                                       !- View Factor to Ground
  ,                                       !- Number of Vertices
  0, 0, 3.048,                            !- X,Y,Z Vertex 1 {m}
  -10.9728, 0, 3.048,                     !- X,Y,Z Vertex 2 {m}
  -10.9728, 6.096, 3.048,                 !- X,Y,Z Vertex 3 {m}
  0, 6.096, 3.048;                        !- X,Y,Z Vertex 4 {m}

OS:Surface,
  {bc3a147a-8cb3-4c77-98b4-99d528da41f4}, !- Handle
  Surface 7,                              !- Name
  Wall,                                   !- Surface Type
  ,                                       !- Construction Name
  {90ff630e-fb79-4f56-a875-27ae9746b8c1}, !- Space Name
  Outdoors,                               !- Outside Boundary Condition
  ,                                       !- Outside Boundary Condition Object
  SunExposed,                             !- Sun Exposure
  WindExposed,                            !- Wind Exposure
  ,                                       !- View Factor to Ground
  ,                                       !- Number of Vertices
  -10.9728, 0, 3.048,                     !- X,Y,Z Vertex 1 {m}
  -10.9728, 0, 3.9624,                    !- X,Y,Z Vertex 2 {m}
  -10.9728, 6.096, 3.9624,                !- X,Y,Z Vertex 3 {m}
  -10.9728, 6.096, 3.048;                 !- X,Y,Z Vertex 4 {m}

OS:Surface,
  {13bd4ca4-333d-457f-a0f9-ae34d850b24b}, !- Handle
  Surface 8,                              !- Name
  Wall,                                   !- Surface Type
  ,                                       !- Construction Name
  {90ff630e-fb79-4f56-a875-27ae9746b8c1}, !- Space Name
  Outdoors,                               !- Outside Boundary Condition
  ,                                       !- Outside Boundary Condition Object
  SunExposed,                             !- Sun Exposure
  WindExposed,                            !- Wind Exposure
  ,                                       !- View Factor to Ground
  ,                                       !- Number of Vertices
  -10.9728, 6.096, 3.048,                 !- X,Y,Z Vertex 1 {m}
  -10.9728, 6.096, 3.9624,                !- X,Y,Z Vertex 2 {m}
  0, 6.096, 3.9624,                       !- X,Y,Z Vertex 3 {m}
  0, 6.096, 3.048;                        !- X,Y,Z Vertex 4 {m}

OS:Surface,
  {8408cfc9-79a0-4583-954e-238ea74860e9}, !- Handle
  Surface 9,                              !- Name
  Wall,                                   !- Surface Type
  ,                                       !- Construction Name
  {90ff630e-fb79-4f56-a875-27ae9746b8c1}, !- Space Name
  Surface,                                !- Outside Boundary Condition
  {d329c0c9-7b17-4929-b5f6-30323c1c90f4}, !- Outside Boundary Condition Object
  NoSun,                                  !- Sun Exposure
  NoWind,                                 !- Wind Exposure
  ,                                       !- View Factor to Ground
  ,                                       !- Number of Vertices
  0, 6.096, 3.048,                        !- X,Y,Z Vertex 1 {m}
  0, 6.096, 3.9624,                       !- X,Y,Z Vertex 2 {m}
  0, 0, 3.9624,                           !- X,Y,Z Vertex 3 {m}
  0, 0, 3.048;                            !- X,Y,Z Vertex 4 {m}

OS:Surface,
  {224470e4-5d88-4175-9141-905daa073abd}, !- Handle
  Surface 10,                             !- Name
  RoofCeiling,                            !- Surface Type
  ,                                       !- Construction Name
  {90ff630e-fb79-4f56-a875-27ae9746b8c1}, !- Space Name
  Surface,                                !- Outside Boundary Condition
  {58dd8bdc-34c6-486e-b457-cd1c3621b497}, !- Outside Boundary Condition Object
  NoSun,                                  !- Sun Exposure
  NoWind,                                 !- Wind Exposure
  ,                                       !- View Factor to Ground
  ,                                       !- Number of Vertices
  0, 0, 3.9624,                           !- X,Y,Z Vertex 1 {m}
  0, 6.096, 3.9624,                       !- X,Y,Z Vertex 2 {m}
  -10.9728, 6.096, 3.9624,                !- X,Y,Z Vertex 3 {m}
  -10.9728, 0, 3.9624;                    !- X,Y,Z Vertex 4 {m}

OS:Surface,
  {58dd8bdc-34c6-486e-b457-cd1c3621b497}, !- Handle
  Surface 11,                             !- Name
  Floor,                                  !- Surface Type
  ,                                       !- Construction Name
  {955f4978-a652-4426-af2c-d52cf62f72b9}, !- Space Name
  Surface,                                !- Outside Boundary Condition
  {224470e4-5d88-4175-9141-905daa073abd}, !- Outside Boundary Condition Object
  NoSun,                                  !- Sun Exposure
  NoWind,                                 !- Wind Exposure
  ,                                       !- View Factor to Ground
  ,                                       !- Number of Vertices
  -10.9728, 0, 3.9624,                    !- X,Y,Z Vertex 1 {m}
  -10.9728, 6.096, 3.9624,                !- X,Y,Z Vertex 2 {m}
  0, 6.096, 3.9624,                       !- X,Y,Z Vertex 3 {m}
  0, 0, 3.9624;                           !- X,Y,Z Vertex 4 {m}

OS:Surface,
  {7f16f433-fb96-4aa5-8ff4-f17af50263c2}, !- Handle
  Surface 12,                             !- Name
  Wall,                                   !- Surface Type
  ,                                       !- Construction Name
  {955f4978-a652-4426-af2c-d52cf62f72b9}, !- Space Name
  Outdoors,                               !- Outside Boundary Condition
  ,                                       !- Outside Boundary Condition Object
  SunExposed,                             !- Sun Exposure
  WindExposed,                            !- Wind Exposure
  ,                                       !- View Factor to Ground
  ,                                       !- Number of Vertices
  -10.9728, 0, 3.9624,                    !- X,Y,Z Vertex 1 {m}
  -10.9728, 0, 7.9248,                    !- X,Y,Z Vertex 2 {m}
  0, 6.096, 3.9624,                       !- X,Y,Z Vertex 3 {m}
  0, 6.096, 3.048;                        !- X,Y,Z Vertex 4 {m}

OS:Surface,
  {c80d92c2-b9b1-4ec5-b334-f99a9ca368be}, !- Handle
  Surface 13,                             !- Name
  Wall,                                   !- Surface Type
  ,                                       !- Construction Name
  {955f4978-a652-4426-af2c-d52cf62f72b9}, !- Space Name
  Outdoors,                               !- Outside Boundary Condition
  ,                                       !- Outside Boundary Condition Object
  SunExposed,                             !- Sun Exposure
  WindExposed,                            !- Wind Exposure
  ,                                       !- View Factor to Ground
  ,                                       !- Number of Vertices
  -10.9728, 6.096, 3.9624,                !- X,Y,Z Vertex 1 {m}
  -10.9728, 6.096, 7.9248,                !- X,Y,Z Vertex 2 {m}
  0, 6.096, 7.9248,                       !- X,Y,Z Vertex 3 {m}
  0, 6.096, 3.9624;                       !- X,Y,Z Vertex 4 {m}

OS:Surface,
  {db58b74b-4372-4175-b829-ed49cdbaf052}, !- Handle
  Surface 14,                             !- Name
  RoofCeiling,                            !- Surface Type
  ,                                       !- Construction Name
  {955f4978-a652-4426-af2c-d52cf62f72b9}, !- Space Name
  Outdoors,                               !- Outside Boundary Condition
  ,                                       !- Outside Boundary Condition Object
  SunExposed,                             !- Sun Exposure
  WindExposed,                            !- Wind Exposure
  ,                                       !- View Factor to Ground
  ,                                       !- Number of Vertices
  0, 6.096, 7.9248,                       !- X,Y,Z Vertex 1 {m}
  -10.9728, 6.096, 7.9248,                !- X,Y,Z Vertex 2 {m}
  -10.9728, 0, 7.9248,                    !- X,Y,Z Vertex 3 {m}
  0, 0, 7.9248;                           !- X,Y,Z Vertex 4 {m}

OS:Surface,
  {cc75230e-7482-46bd-98f3-f6ac89090890}, !- Handle
  Surface 15,                             !- Name
  Wall,                                   !- Surface Type
  ,                                       !- Construction Name
  {955f4978-a652-4426-af2c-d52cf62f72b9}, !- Space Name
  Surface,                                !- Outside Boundary Condition
  {bd0e3fc9-9029-4ef3-9485-56b0a15766cb}, !- Outside Boundary Condition Object
  NoSun,                                  !- Sun Exposure
  NoWind,                                 !- Wind Exposure
  ,                                       !- View Factor to Ground
  ,                                       !- Number of Vertices
  0, 6.096, 3.9624,                       !- X,Y,Z Vertex 1 {m}
  0, 6.096, 7.9248,                       !- X,Y,Z Vertex 2 {m}
  0, 0, 7.9248,                           !- X,Y,Z Vertex 3 {m}
  0, 0, 3.9624;                           !- X,Y,Z Vertex 4 {m}

OS:Surface,
  {1e7f2cc2-e4bd-4b57-bc88-899964ddb883}, !- Handle
  Surface 16,                             !- Name
  Wall,                                   !- Surface Type
  ,                                       !- Construction Name
  {955f4978-a652-4426-af2c-d52cf62f72b9}, !- Space Name
  Outdoors,                               !- Outside Boundary Condition
  ,                                       !- Outside Boundary Condition Object
  SunExposed,                             !- Sun Exposure
  WindExposed,                            !- Wind Exposure
  ,                                       !- View Factor to Ground
  ,                                       !- Number of Vertices
  0, 0, 3.9624,                           !- X,Y,Z Vertex 1 {m}
  0, 0, 7.9248,                           !- X,Y,Z Vertex 2 {m}
  -10.9728, 0, 7.9248,                    !- X,Y,Z Vertex 3 {m}
  -10.9728, 0, 3.9624;                    !- X,Y,Z Vertex 4 {m}

OS:Surface,
  {5d0d72a7-f90e-4ae2-a7e1-ca017dbf368c}, !- Handle
  Surface 17,                             !- Name
  Wall,                                   !- Surface Type
  ,                                       !- Construction Name
  {37586cb3-aa80-4e8b-b648-ed720cfb3908}, !- Space Name
  Surface,                                !- Outside Boundary Condition
  {a65326a3-8228-4f31-96b0-cd7dfd955e31}, !- Outside Boundary Condition Object
  NoSun,                                  !- Sun Exposure
  NoWind,                                 !- Wind Exposure
  ,                                       !- View Factor to Ground
  ,                                       !- Number of Vertices
  0, 0, 3.048,                            !- X,Y,Z Vertex 1 {m}
  0, 0, 0,                                !- X,Y,Z Vertex 2 {m}
  0, 6.096, 0,                            !- X,Y,Z Vertex 3 {m}
  0, 6.096, 3.048;                        !- X,Y,Z Vertex 4 {m}

OS:Surface,
  {17212704-90fa-439b-bd9b-37945ebb089f}, !- Handle
  Surface 18,                             !- Name
  Wall,                                   !- Surface Type
  ,                                       !- Construction Name
  {37586cb3-aa80-4e8b-b648-ed720cfb3908}, !- Space Name
  Outdoors,                               !- Outside Boundary Condition
  ,                                       !- Outside Boundary Condition Object
  SunExposed,                             !- Sun Exposure
  WindExposed,                            !- Wind Exposure
  ,                                       !- View Factor to Ground
  ,                                       !- Number of Vertices
  0, 0.0762, 0,                           !- X,Y,Z Vertex 1 {m}
  2.4384, 0.0762, 0,                      !- X,Y,Z Vertex 2 {m}
  2.4384, 0.0762, 7.9248,                 !- X,Y,Z Vertex 3 {m}
  0, 0.0762, 7.9248;                      !- X,Y,Z Vertex 4 {m}

OS:Surface,
  {d69ea5da-f76a-488c-afb3-c9b41038980b}, !- Handle
  Surface 19,                             !- Name
  Wall,                                   !- Surface Type
  ,                                       !- Construction Name
  {37586cb3-aa80-4e8b-b648-ed720cfb3908}, !- Space Name
  Outdoors,                               !- Outside Boundary Condition
  ,                                       !- Outside Boundary Condition Object
  SunExposed,                             !- Sun Exposure
  WindExposed,                            !- Wind Exposure
  ,                                       !- View Factor to Ground
  ,                                       !- Number of Vertices
  2.4384, 0.0762, 7.9248,                 !- X,Y,Z Vertex 1 {m}
  2.4384, 0.0762, 0,                      !- X,Y,Z Vertex 2 {m}
  2.4384, 6.0198, 0,                      !- X,Y,Z Vertex 3 {m}
  2.4384, 6.0198, 7.9248;                 !- X,Y,Z Vertex 4 {m}

OS:Surface,
  {93d9e164-44b3-4a34-9c01-514324c685fc}, !- Handle
  Surface 20,                             !- Name
  Wall,                                   !- Surface Type
  ,                                       !- Construction Name
  {37586cb3-aa80-4e8b-b648-ed720cfb3908}, !- Space Name
  Outdoors,                               !- Outside Boundary Condition
  ,                                       !- Outside Boundary Condition Object
  SunExposed,                             !- Sun Exposure
  WindExposed,                            !- Wind Exposure
  ,                                       !- View Factor to Ground
  ,                                       !- Number of Vertices
  2.4384, 6.0198, 7.9248,                 !- X,Y,Z Vertex 1 {m}
  2.4384, 6.0198, 0,                      !- X,Y,Z Vertex 2 {m}
  0, 6.0198, 0,                           !- X,Y,Z Vertex 3 {m}
  0, 6.0198, 7.9248;                      !- X,Y,Z Vertex 4 {m}

OS:Surface,
  {b3810fc3-1dbc-4742-a42a-c06f7eec5699}, !- Handle
  Surface 21,                             !- Name
  RoofCeiling,                            !- Surface Type
  ,                                       !- Construction Name
  {37586cb3-aa80-4e8b-b648-ed720cfb3908}, !- Space Name
  Outdoors,                               !- Outside Boundary Condition
  ,                                       !- Outside Boundary Condition Object
  SunExposed,                             !- Sun Exposure
  WindExposed,                            !- Wind Exposure
  ,                                       !- View Factor to Ground
  ,                                       !- Number of Vertices
  2.4384, 6.0198, 7.9248,                 !- X,Y,Z Vertex 1 {m}
  0, 6.0198, 7.9248,                      !- X,Y,Z Vertex 2 {m}
  0, 0.0762, 7.9248,                      !- X,Y,Z Vertex 3 {m}
  2.4384, 0.0762, 7.9248;                 !- X,Y,Z Vertex 4 {m}

OS:Surface,
  {d0abf0c3-0b7c-4937-a6e9-faccdf62c4e5}, !- Handle
  Surface 22,                             !- Name
  Floor,                                  !- Surface Type
  ,                                       !- Construction Name
  {37586cb3-aa80-4e8b-b648-ed720cfb3908}, !- Space Name
  Ground,                                 !- Outside Boundary Condition
  ,                                       !- Outside Boundary Condition Object
  NoSun,                                  !- Sun Exposure
  NoWind,                                 !- Wind Exposure
  ,                                       !- View Factor to Ground
  ,                                       !- Number of Vertices
  2.4384, 0.0762, 0,                      !- X,Y,Z Vertex 1 {m}
  0, 0.0762, 0,                           !- X,Y,Z Vertex 2 {m}
  0, 6.0198, 0,                           !- X,Y,Z Vertex 3 {m}
  2.4384, 6.0198, 0;                      !- X,Y,Z Vertex 4 {m}

OS:Surface,
  {bd0e3fc9-9029-4ef3-9485-56b0a15766cb}, !- Handle
  Surface 23,                             !- Name
  Wall,                                   !- Surface Type
  ,                                       !- Construction Name
  {37586cb3-aa80-4e8b-b648-ed720cfb3908}, !- Space Name
  Surface,                                !- Outside Boundary Condition
  {cc75230e-7482-46bd-98f3-f6ac89090890}, !- Outside Boundary Condition Object
  NoSun,                                  !- Sun Exposure
  NoWind,                                 !- Wind Exposure
  ,                                       !- View Factor to Ground
  ,                                       !- Number of Vertices
  0, 0.0762, 3.9624,                      !- X,Y,Z Vertex 1 {m}
  0, 0.0762, 7.9248,                      !- X,Y,Z Vertex 2 {m}
  0, 6.0198, 7.9248,                      !- X,Y,Z Vertex 3 {m}
  0, 6.0198, 3.9624;                      !- X,Y,Z Vertex 4 {m}

OS:Surface,
  {d329c0c9-7b17-4929-b5f6-30323c1c90f4}, !- Handle
  Surface 24,                             !- Name
  Wall,                                   !- Surface Type
  ,                                       !- Construction Name
  {37586cb3-aa80-4e8b-b648-ed720cfb3908}, !- Space Name
  Surface,                                !- Outside Boundary Condition
  {8408cfc9-79a0-4583-954e-238ea74860e9}, !- Outside Boundary Condition Object
  NoSun,                                  !- Sun Exposure
  NoWind,                                 !- Wind Exposure
  ,                                       !- View Factor to Ground
  ,                                       !- Number of Vertices
  0, 0.0762, 3.048,                       !- X,Y,Z Vertex 1 {m}
  0, 0.0762, 3.9624,                      !- X,Y,Z Vertex 2 {m}
  0, 6.0198, 3.9624,                      !- X,Y,Z Vertex 3 {m}
  0, 6.0198, 3.048;                       !- X,Y,Z Vertex 4 {m}

OS:ThermalZone,
  {e8a8c4a3-3db5-4e32-85b7-ed413dfec766}, !- Handle
  sp-2-Zone,                              !- Name
  ,                                       !- Multiplier
  ,                                       !- Ceiling Height {m}
  ,                                       !- Volume {m3}
  ,                                       !- Floor Area {m2}
  ,                                       !- Zone Inside Convection Algorithm
  ,                                       !- Zone Outside Convection Algorithm
  ,                                       !- Zone Conditioning Equipment List Name
  {5c1b735e-1279-429e-95f4-cca3aea8fc27}, !- Zone Air Inlet Port List
  {a62799f7-43b8-4d4e-a4ac-91ee23fcc8ea}, !- Zone Air Exhaust Port List
  {ce190445-3e69-43ba-9a1c-5cfce4a814ad}, !- Zone Air Node Name
  ,                                       !- Zone Return Air Node Name
  ,                                       !- Primary Daylighting Control Name
  ,                                       !- Fraction of Zone Controlled by Primary Daylighting Control
  ,                                       !- Secondary Daylighting Control Name
  ,                                       !- Fraction of Zone Controlled by Secondary Daylighting Control
  ,                                       !- Illuminance Map Name