
OS:Version,
  {e75c1374-d9b4-47b7-ba8c-018d52ae12a1}, !- Handle
  1.9.0;                                  !- Version Identifier

OS:Facility,
  {7dda47f1-85a4-4519-a71b-c010d36ee5c8}; !- Handle

OS:Building,
  {f4df0f46-8bd2-486f-aa63-7c2e5a1dfdc1}, !- Handle
  Building 1,                             !- Name
  ,                                       !- Building Sector Type
  ,                                       !- North Axis {deg}
  ,                                       !- Nominal Floor to Floor Height {m}
  ,                                       !- Space Type Name
  ,                                       !- Default Construction Set Name
  ;                                       !- Default Schedule Set Name

OS:BuildingStory,
  {688bdbe7-7e97-424e-90c8-93d80b2c155a}, !- Handle
  Level 1,                                !- Name
  ,                                       !- Nominal Z Coordinate {m}
  ,                                       !- Nominal Floor to Floor Height {m}
  ,                                       !- Default Construction Set Name
  ,                                       !- Default Schedule Set Name
  ;                                       !- Group Rendering Name

OS:BuildingStory,
  {60443223-d8dc-43d1-a2b9-84656c11b7af}, !- Handle
  Level 1 Plenum,                         !- Name
  ,                                       !- Nominal Z Coordinate {m}
  3.048,                                  !- Nominal Floor to Floor Height {m}
  ,                                       !- Default Construction Set Name
  ,                                       !- Default Schedule Set Name
  ;                                       !- Group Rendering Name

OS:BuildingStory,
  {3f39e231-8a2e-48df-aa1f-7339460ea27c}, !- Handle
  Level 2,                                !- Name
  ,                                       !- Nominal Z Coordinate {m}
  3.9624,                                 !- Nominal Floor to Floor Height {m}
  ,                                       !- Default Construction Set Name
  ,                                       !- Default Schedule Set Name
  ;                                       !- Group Rendering Name

OS:BuildingStory,
  {966de430-0e0f-4972-8d2e-a2750bd5fbb0}, !- Handle
  Level 2 Plenum,                         !- Name
  ,                                       !- Nominal Z Coordinate {m}
  7.0104,                                 !- Nominal Floor to Floor Height {m}
  ,                                       !- Default Construction Set Name
  ,                                       !- Default Schedule Set Name
  ;                                       !- Group Rendering Name

OS:BuildingStory,
  {6b5e6dab-5513-4294-85fb-b44b5322db53}, !- Handle
  Level 3,                                !- Name
  ,                                       !- Nominal Z Coordinate {m}
  7.9248,                                 !- Nominal Floor to Floor Height {m}
  ,                                       !- Default Construction Set Name
  ,                                       !- Default Schedule Set Name
  ;                                       !- Group Rendering Name

OS:Space,
  {f0633c40-9fff-4f97-a5da-c992169dd18f}, !- Handle
  sp-1-Space,                             !- Name
  ,                                       !- Space Type Name
  ,                                       !- Default Construction Set Name
  ,                                       !- Default Schedule Set Name
  ,                                       !- Direction of Relative North {deg}
  ,                                       !- X Origin {m}
  ,                                       !- Y Origin {m}
  ,                                       !- Z Origin {m}
  {688bdbe7-7e97-424e-90c8-93d80b2c155a}, !- Building Story Name
  {0083d02f-2405-4fd6-ad22-79f16c132a8f}; !- Thermal Zone Name

OS:Space,
  {b9619eee-0a59-431c-aeb4-0741f3a460dc}, !- Handle
  sp-4-Space,                             !- Name
  ,                                       !- Space Type Name
  ,                                       !- Default Construction Set Name
  ,                                       !- Default Schedule Set Name
  ,                                       !- Direction of Relative North {deg}
  ,                                       !- X Origin {m}
  ,                                       !- Y Origin {m}
  ,                                       !- Z Origin {m}
  {60443223-d8dc-43d1-a2b9-84656c11b7af}, !- Building Story Name
  {510d6d44-4912-4387-91cb-d7f2e096a5e0}; !- Thermal Zone Name

OS:Space,
  {9b1eca9a-32e1-4f9d-9faf-010292bdada0}, !- Handle
  sp-3-Space,                             !- Name
  ,                                       !- Space Type Name
  ,                                       !- Default Construction Set Name
  ,                                       !- Default Schedule Set Name
  ,                                       !- Direction of Relative North {deg}
  ,                                       !- X Origin {m}
  ,                                       !- Y Origin {m}
  ,                                       !- Z Origin {m}
  {3f39e231-8a2e-48df-aa1f-7339460ea27c}, !- Building Story Name
  {a07b8238-6836-4007-8368-5270c40ab8f3}; !- Thermal Zone Name

OS:Space,
  {4364aac9-b161-41e6-96b1-d465f782450b}, !- Handle
  sp-2-Space,                             !- Name
  ,                                       !- Space Type Name
  ,                                       !- Default Construction Set Name
  ,                                       !- Default Schedule Set Name
  ,                                       !- Direction of Relative North {deg}
  ,                                       !- X Origin {m}
  ,                                       !- Y Origin {m}
  ,                                       !- Z Origin {m}
  {688bdbe7-7e97-424e-90c8-93d80b2c155a}, !- Building Story Name
  {fbd80133-85f4-42d5-9721-aa7e024428c4}; !- Thermal Zone Name

OS:Surface,
  {5046b51d-fbb3-440c-8d7b-61d0724ca7b3}, !- Handle
  Surface 1,                              !- Name
  Floor,                                  !- Surface Type
  ,                                       !- Construction Name
  {f0633c40-9fff-4f97-a5da-c992169dd18f}, !- Space Name
  Ground,                                 !- Outside Boundary Condition
  ,                                       !- Outside Boundary Condition Object
  NoSun,                                  !- Sun Exposure
  NoWind,                                 !- Wind Exposure
  ,                                       !- View Factor to Ground
  ,                                       !- Number of Vertices
  -10.9728, 0, 0,                         !- X,Y,Z Vertex 1 {m}
  -10.9728, 6.096, 0,                     !- X,Y,Z Vertex 2 {m}
  0, 6.096, 0,                            !- X,Y,Z Vertex 3 {m}
  0, 0, 0;                                !- X,Y,Z Vertex 4 {m}

OS:Surface,
  {1a6d6cc3-66ea-477b-9930-46865eac7ef6}, !- Handle
  Surface 2,                              !- Name
  Wall,                                   !- Surface Type
  ,                                       !- Construction Name
  {f0633c40-9fff-4f97-a5da-c992169dd18f}, !- Space Name
  Outdoors,                               !- Outside Boundary Condition
  ,                                       !- Outside Boundary Condition Object
  SunExposed,                             !- Sun Exposure
  WindExposed,                            !- Wind Exposure
  ,                                       !- View Factor to Ground
  ,                                       !- Number of Vertices
  -10.9728, 0, 0,                         !- X,Y,Z Vertex 1 {m}
  -10.9728, 0, 3.048,                     !- X,Y,Z Vertex 2 {m}
  -10.9728, 6.096, 3.048,                 !- X,Y,Z Vertex 3 {m}
  -10.9728, 6.096, 0;                     !- X,Y,Z Vertex 4 {m}

OS:Surface,
  {abf91bf7-03f8-4146-a936-3069d913859c}, !- Handle
  Surface 3,                              !- Name
  Wall,                                   !- Surface Type
  ,                                       !- Construction Name
  {f0633c40-9fff-4f97-a5da-c992169dd18f}, !- Space Name
  Outdoors,                               !- Outside Boundary Condition
  ,                                       !- Outside Boundary Condition Object
  SunExposed,                             !- Sun Exposure
  WindExposed,                            !- Wind Exposure
  ,                                       !- View Factor to Ground
  ,                                       !- Number of Vertices
  -10.9728, 6.096, 0,                     !- X,Y,Z Vertex 1 {m}
  -10.9728, 6.096, 3.048,                 !- X,Y,Z Vertex 2 {m}
  0, 6.096, 3.048,                        !- X,Y,Z Vertex 3 {m}
  0, 6.096, 0;                            !- X,Y,Z Vertex 4 {m}

OS:Surface,
  {82397fd1-b4fb-402b-a410-7970e7bb5460}, !- Handle
  Surface 4,                              !- Name
  Wall,                                   !- Surface Type
  ,                                       !- Construction Name
  {f0633c40-9fff-4f97-a5da-c992169dd18f}, !- Space Name
  Surface,                                !- Outside Boundary Condition
  {70585ca9-4ab2-4b3c-b645-acc11a0ac59a}, !- Outside Boundary Condition Object
  NoSun,                                  !- Sun Exposure
  NoWind,                                 !- Wind Exposure
  ,                                       !- View Factor to Ground
  ,                                       !- Number of Vertices
  0, 6.096, 0,                            !- X,Y,Z Vertex 1 {m}
  0, 6.096, 3.048,                        !- X,Y,Z Vertex 2 {m}
  0, 0, 3.048,                            !- X,Y,Z Vertex 3 {m}
  0, 0, 0;                                !- X,Y,Z Vertex 4 {m}

OS:Surface,
  {fe1c3b8c-47dd-4726-b1b8-cbb95bb26ff7}, !- Handle
  Surface 5,                              !- Name
  RoofCeiling,                            !- Surface Type
  ,                                       !- Construction Name
  {f0633c40-9fff-4f97-a5da-c992169dd18f}, !- Space Name
  Surface,                                !- Outside Boundary Condition
  {9110a337-6352-46b1-a04c-4a574a4dbda6}, !- Outside Boundary Condition Object
  NoSun,                                  !- Sun Exposure
  NoWind,                                 !- Wind Exposure
  ,                                       !- View Factor to Ground
  ,                                       !- Number of Vertices
  0, 6.096, 3.048,                        !- X,Y,Z Vertex 1 {m}
  -10.9728, 6.096, 3.048,                 !- X,Y,Z Vertex 2 {m}
  -10.9728, 0, 3.048,                     !- X,Y,Z Vertex 3 {m}
  0, 0, 3.048;                            !- X,Y,Z Vertex 4 {m}

OS:Surface,
  {9110a337-6352-46b1-a04c-4a574a4dbda6}, !- Handle
  Surface 6,                              !- Name
  Floor,                                  !- Surface Type
  ,                                       !- Construction Name
  {b9619eee-0a59-431c-aeb4-0741f3a460dc}, !- Space Name
  Surface,                                !- Outside Boundary Condition
  {fe1c3b8c-47dd-4726-b1b8-cbb95bb26ff7}, !- Outside Boundary Condition Object
  NoSun,                                  !- Sun Exposure
  NoWind,                                 !- Wind Exposure
  ,                                       !- View Factor to Ground
  ,                                       !- Number of Vertices
  0, 0, 3.048,                            !- X,Y,Z Vertex 1 {m}
  -10.9728, 0, 3.048,                     !- X,Y,Z Vertex 2 {m}
  -10.9728, 6.096, 3.048,                 !- X,Y,Z Vertex 3 {m}
  0, 6.096, 3.048;                        !- X,Y,Z Vertex 4 {m}

OS:Surface,
  {c93d7dc4-68e2-472e-b74f-4ef7f0f83850}, !- Handle
  Surface 7,                              !- Name
  Wall,                                   !- Surface Type
  ,                                       !- Construction Name
  {b9619eee-0a59-431c-aeb4-0741f3a460dc}, !- Space Name
  Outdoors,                               !- Outside Boundary Condition
  ,                                       !- Outside Boundary Condition Object
  SunExposed,                             !- Sun Exposure
  WindExposed,                            !- Wind Exposure
  ,                                       !- View Factor to Ground
  ,                                       !- Number of Vertices
  -10.9728, 0, 3.048,                     !- X,Y,Z Vertex 1 {m}
  -10.9728, 0, 3.9624,                    !- X,Y,Z Vertex 2 {m}
  -10.9728, 6.096, 3.9624,                !- X,Y,Z Vertex 3 {m}
  -10.9728, 6.096, 3.048;                 !- X,Y,Z Vertex 4 {m}

OS:Surface,
  {1b25363c-3438-402b-9125-c4cfd8668dfa}, !- Handle
  Surface 8,                              !- Name
  Wall,                                   !- Surface Type
  ,                                       !- Construction Name
  {b9619eee-0a59-431c-aeb4-0741f3a460dc}, !- Space Name
  Outdoors,                               !- Outside Boundary Condition
  ,                                       !- Outside Boundary Condition Object
  SunExposed,                             !- Sun Exposure
  WindExposed,                            !- Wind Exposure
  ,                                       !- View Factor to Ground
  ,                                       !- Number of Vertices
  -10.9728, 6.096, 3.048,                 !- X,Y,Z Vertex 1 {m}
  -10.9728, 6.096, 3.9624,                !- X,Y,Z Vertex 2 {m}
  0, 6.096, 3.9624,                       !- X,Y,Z Vertex 3 {m}
  0, 6.096, 3.048;                        !- X,Y,Z Vertex 4 {m}

OS:Surface,
  {6b4cc58f-dc24-4a45-a8ae-4c319212c11f}, !- Handle
  Surface 9,                              !- Name
  Wall,                                   !- Surface Type
  ,                                       !- Construction Name
  {b9619eee-0a59-431c-aeb4-0741f3a460dc}, !- Space Name
  Surface,                                !- Outside Boundary Condition
  {93e37435-d4cb-4249-9009-296e9653d232}, !- Outside Boundary Condition Object
  NoSun,                                  !- Sun Exposure
  NoWind,                                 !- Wind Exposure
  ,                                       !- View Factor to Ground
  ,                                       !- Number of Vertices
  0, 6.096, 3.048,                        !- X,Y,Z Vertex 1 {m}
  0, 6.096, 3.9624,                       !- X,Y,Z Vertex 2 {m}
  0, 0, 3.9624,                           !- X,Y,Z Vertex 3 {m}
  0, 0, 3.048;                            !- X,Y,Z Vertex 4 {m}

OS:Surface,
  {da88da9f-92b7-4779-9530-d2053ea77230}, !- Handle
  Surface 10,                             !- Name
  RoofCeiling,                            !- Surface Type
  ,                                       !- Construction Name
  {b9619eee-0a59-431c-aeb4-0741f3a460dc}, !- Space Name
  Surface,                                !- Outside Boundary Condition
  {123de5b8-d0b5-4923-b21c-423fe67bd2e0}, !- Outside Boundary Condition Object
  NoSun,                                  !- Sun Exposure
  NoWind,                                 !- Wind Exposure
  ,                                       !- View Factor to Ground
  ,                                       !- Number of Vertices
  0, 0, 3.9624,                           !- X,Y,Z Vertex 1 {m}
  0, 6.096, 3.9624,                       !- X,Y,Z Vertex 2 {m}
  -10.9728, 6.096, 3.9624,                !- X,Y,Z Vertex 3 {m}
  -10.9728, 0, 3.9624;                    !- X,Y,Z Vertex 4 {m}

OS:Surface,
  {123de5b8-d0b5-4923-b21c-423fe67bd2e0}, !- Handle
  Surface 11,                             !- Name
  Floor,                                  !- Surface Type
  ,                                       !- Construction Name
  {9b1eca9a-32e1-4f9d-9faf-010292bdada0}, !- Space Name
  Surface,                                !- Outside Boundary Condition
  {da88da9f-92b7-4779-9530-d2053ea77230}, !- Outside Boundary Condition Object
  NoSun,                                  !- Sun Exposure
  NoWind,                                 !- Wind Exposure
  ,                                       !- View Factor to Ground
  ,                                       !- Number of Vertices
  -10.9728, 0, 3.9624,                    !- X,Y,Z Vertex 1 {m}
  -10.9728, 6.096, 3.9624,                !- X,Y,Z Vertex 2 {m}
  0, 6.096, 3.9624,                       !- X,Y,Z Vertex 3 {m}
  0, 0, 3.9624;                           !- X,Y,Z Vertex 4 {m}

OS:Surface,
  {5964a8cf-db46-4e2f-852f-dfedca4c64fc}, !- Handle
  Surface 12,                             !- Name
  Wall,                                   !- Surface Type
  ,                                       !- Construction Name
  {9b1eca9a-32e1-4f9d-9faf-010292bdada0}, !- Space Name
  Outdoors,                               !- Outside Boundary Condition
  ,                                       !- Outside Boundary Condition Object
  SunExposed,                             !- Sun Exposure
  WindExposed,                            !- Wind Exposure
  ,                                       !- View Factor to Ground
  ,                                       !- Number of Vertices
  -10.9728, 0, 3.9624,                    !- X,Y,Z Vertex 1 {m}
  -10.9728, 0, 7.9248,                    !- X,Y,Z Vertex 2 {m}
  0, 6.096, 3.9624,                       !- X,Y,Z Vertex 3 {m}
  0, 6.096, 3.048;                        !- X,Y,Z Vertex 4 {m}

OS:Surface,
  {89aa4423-a9d6-41c8-ad60-5720db3553fc}, !- Handle
  Surface 13,                             !- Name
  Wall,                                   !- Surface Type
  ,                                       !- Construction Name
  {9b1eca9a-32e1-4f9d-9faf-010292bdada0}, !- Space Name
  Outdoors,                               !- Outside Boundary Condition
  ,                                       !- Outside Boundary Condition Object
  SunExposed,                             !- Sun Exposure
  WindExposed,                            !- Wind Exposure
  ,                                       !- View Factor to Ground
  ,                                       !- Number of Vertices
  -10.9728, 6.096, 3.9624,                !- X,Y,Z Vertex 1 {m}
  -10.9728, 6.096, 7.9248,                !- X,Y,Z Vertex 2 {m}
  0, 6.096, 7.9248,                       !- X,Y,Z Vertex 3 {m}
  0, 6.096, 3.9624;                       !- X,Y,Z Vertex 4 {m}

OS:Surface,
  {1c6db8d2-ba59-4f2a-8b05-f55d88a7478d}, !- Handle
  Surface 14,                             !- Name
  RoofCeiling,                            !- Surface Type
  ,                                       !- Construction Name
  {9b1eca9a-32e1-4f9d-9faf-010292bdada0}, !- Space Name
  Outdoors,                               !- Outside Boundary Condition
  ,                                       !- Outside Boundary Condition Object
  SunExposed,                             !- Sun Exposure
  WindExposed,                            !- Wind Exposure
  ,                                       !- View Factor to Ground
  ,                                       !- Number of Vertices
  0, 6.096, 7.9248,                       !- X,Y,Z Vertex 1 {m}
  -10.9728, 6.096, 7.9248,                !- X,Y,Z Vertex 2 {m}
  -10.9728, 0, 7.9248,                    !- X,Y,Z Vertex 3 {m}
  0, 0, 7.9248;                           !- X,Y,Z Vertex 4 {m}

OS:Surface,
  {ebbef299-5cb3-45e0-ab16-6f0e057559ae}, !- Handle
  Surface 15,                             !- Name
  Wall,                                   !- Surface Type
  ,                                       !- Construction Name
  {9b1eca9a-32e1-4f9d-9faf-010292bdada0}, !- Space Name
  Surface,                                !- Outside Boundary Condition
  {b5543d16-f3ff-4819-942b-de4e3557eeac}, !- Outside Boundary Condition Object
  NoSun,                                  !- Sun Exposure
  NoWind,                                 !- Wind Exposure
  ,                                       !- View Factor to Ground
  ,                                       !- Number of Vertices
  0, 6.096, 3.9624,                       !- X,Y,Z Vertex 1 {m}
  0, 6.096, 7.9248,                       !- X,Y,Z Vertex 2 {m}
  0, 0, 7.9248,                           !- X,Y,Z Vertex 3 {m}
  0, 0, 3.9624;                           !- X,Y,Z Vertex 4 {m}

OS:Surface,
  {72cb4196-17c8-4289-872d-63c6031ed2ea}, !- Handle
  Surface 16,                             !- Name
  Wall,                                   !- Surface Type
  ,                                       !- Construction Name
  {9b1eca9a-32e1-4f9d-9faf-010292bdada0}, !- Space Name
  Outdoors,                               !- Outside Boundary Condition
  ,                                       !- Outside Boundary Condition Object
  SunExposed,                             !- Sun Exposure
  WindExposed,                            !- Wind Exposure
  ,                                       !- View Factor to Ground
  ,                                       !- Number of Vertices
  0, 0, 3.9624,                           !- X,Y,Z Vertex 1 {m}
  0, 0, 7.9248,                           !- X,Y,Z Vertex 2 {m}
  -10.9728, 0, 7.9248,                    !- X,Y,Z Vertex 3 {m}
  -10.9728, 0, 3.9624;                    !- X,Y,Z Vertex 4 {m}

OS:Surface,
  {70585ca9-4ab2-4b3c-b645-acc11a0ac59a}, !- Handle
  Surface 17,                             !- Name
  Wall,                                   !- Surface Type
  ,                                       !- Construction Name
  {4364aac9-b161-41e6-96b1-d465f782450b}, !- Space Name
  Surface,                                !- Outside Boundary Condition
  {82397fd1-b4fb-402b-a410-7970e7bb5460}, !- Outside Boundary Condition Object
  NoSun,                                  !- Sun Exposure
  NoWind,                                 !- Wind Exposure
  ,                                       !- View Factor to Ground
  ,                                       !- Number of Vertices
  0, 0, 3.048,                            !- X,Y,Z Vertex 1 {m}
  0, 0, 0,                                !- X,Y,Z Vertex 2 {m}
  0, 6.096, 0,                            !- X,Y,Z Vertex 3 {m}
  0, 6.096, 3.048;                        !- X,Y,Z Vertex 4 {m}

OS:Surface,
  {1450fd56-62d6-49ad-a4a2-bb6987b18d24}, !- Handle
  Surface 18,                             !- Name
  Wall,                                   !- Surface Type
  ,                                       !- Construction Name
  {4364aac9-b161-41e6-96b1-d465f782450b}, !- Space Name
  Outdoors,                               !- Outside Boundary Condition
  ,                                       !- Outside Boundary Condition Object
  SunExposed,                             !- Sun Exposure
  WindExposed,                            !- Wind Exposure
  ,                                       !- View Factor to Ground
  ,                                       !- Number of Vertices
  0, 0.0762, 0,                           !- X,Y,Z Vertex 1 {m}
  2.4384, 0.0762, 0,                      !- X,Y,Z Vertex 2 {m}
  2.4384, 0.0762, 7.9248,                 !- X,Y,Z Vertex 3 {m}
  0, 0.0762, 7.9248;                      !- X,Y,Z Vertex 4 {m}

OS:Surface,
  {e8cb7e8d-699e-4924-8b26-9e228936858a}, !- Handle
  Surface 19,                             !- Name
  Wall,                                   !- Surface Type
  ,                                       !- Construction Name
  {4364aac9-b161-41e6-96b1-d465f782450b}, !- Space Name
  Outdoors,                               !- Outside Boundary Condition
  ,                                       !- Outside Boundary Condition Object
  SunExposed,                             !- Sun Exposure
  WindExposed,                            !- Wind Exposure
  ,                                       !- View Factor to Ground
  ,                                       !- Number of Vertices
  2.4384, 0.0762, 7.9248,                 !- X,Y,Z Vertex 1 {m}
  2.4384, 0.0762, 0,                      !- X,Y,Z Vertex 2 {m}
  2.4384, 6.0198, 0,                      !- X,Y,Z Vertex 3 {m}
  2.4384, 6.0198, 7.9248;                 !- X,Y,Z Vertex 4 {m}

OS:Surface,
  {be3e702b-2064-4ab7-8bad-34b7f8dd0dc9}, !- Handle
  Surface 20,                             !- Name
  Wall,                                   !- Surface Type
  ,                                       !- Construction Name
  {4364aac9-b161-41e6-96b1-d465f782450b}, !- Space Name
  Outdoors,                               !- Outside Boundary Condition
  ,                                       !- Outside Boundary Condition Object
  SunExposed,                             !- Sun Exposure
  WindExposed,                            !- Wind Exposure
  ,                                       !- View Factor to Ground
  ,                                       !- Number of Vertices
  2.4384, 6.0198, 7.9248,                 !- X,Y,Z Vertex 1 {m}
  2.4384, 6.0198, 0,                      !- X,Y,Z Vertex 2 {m}
  0, 6.0198, 0,                           !- X,Y,Z Vertex 3 {m}
  0, 6.0198, 7.9248;                      !- X,Y,Z Vertex 4 {m}

OS:Surface,
  {4f886b90-9250-43a6-b52d-a1879bc22b4a}, !- Handle
  Surface 21,                             !- Name
  RoofCeiling,                            !- Surface Type
  ,                                       !- Construction Name
  {4364aac9-b161-41e6-96b1-d465f782450b}, !- Space Name
  Outdoors,                               !- Outside Boundary Condition
  ,                                       !- Outside Boundary Condition Object
  SunExposed,                             !- Sun Exposure
  WindExposed,                            !- Wind Exposure
  ,                                       !- View Factor to Ground
  ,                                       !- Number of Vertices
  2.4384, 6.0198, 7.9248,                 !- X,Y,Z Vertex 1 {m}
  0, 6.0198, 7.9248,                      !- X,Y,Z Vertex 2 {m}
  0, 0.0762, 7.9248,                      !- X,Y,Z Vertex 3 {m}
  2.4384, 0.0762, 7.9248;                 !- X,Y,Z Vertex 4 {m}

OS:Surface,
  {4bafd8d4-fec2-4f9a-a940-f2851a2ac736}, !- Handle
  Surface 22,                             !- Name
  Floor,                                  !- Surface Type
  ,                                       !- Construction Name
  {4364aac9-b161-41e6-96b1-d465f782450b}, !- Space Name
  Ground,                                 !- Outside Boundary Condition
  ,                                       !- Outside Boundary Condition Object
  NoSun,                                  !- Sun Exposure
  NoWind,                                 !- Wind Exposure
  ,                                       !- View Factor to Ground
  ,                                       !- Number of Vertices
  2.4384, 0.0762, 0,                      !- X,Y,Z Vertex 1 {m}
  0, 0.0762, 0,                           !- X,Y,Z Vertex 2 {m}
  0, 6.0198, 0,                           !- X,Y,Z Vertex 3 {m}
  2.4384, 6.0198, 0;                      !- X,Y,Z Vertex 4 {m}

OS:Surface,
  {b5543d16-f3ff-4819-942b-de4e3557eeac}, !- Handle
  Surface 23,                             !- Name
  Wall,                                   !- Surface Type
  ,                                       !- Construction Name
  {4364aac9-b161-41e6-96b1-d465f782450b}, !- Space Name
  Surface,                                !- Outside Boundary Condition
  {ebbef299-5cb3-45e0-ab16-6f0e057559ae}, !- Outside Boundary Condition Object
  NoSun,                                  !- Sun Exposure
  NoWind,                                 !- Wind Exposure
  ,                                       !- View Factor to Ground
  ,                                       !- Number of Vertices
  0, 0.0762, 3.9624,                      !- X,Y,Z Vertex 1 {m}
  0, 0.0762, 7.9248,                      !- X,Y,Z Vertex 2 {m}
  0, 6.0198, 7.9248,                      !- X,Y,Z Vertex 3 {m}
  0, 6.0198, 3.9624;                      !- X,Y,Z Vertex 4 {m}

OS:Surface,
  {93e37435-d4cb-4249-9009-296e9653d232}, !- Handle
  Surface 24,                             !- Name
  Wall,                                   !- Surface Type
  ,                                       !- Construction Name
  {4364aac9-b161-41e6-96b1-d465f782450b}, !- Space Name
  Surface,                                !- Outside Boundary Condition
  {6b4cc58f-dc24-4a45-a8ae-4c319212c11f}, !- Outside Boundary Condition Object
  NoSun,                                  !- Sun Exposure
  NoWind,                                 !- Wind Exposure
  ,                                       !- View Factor to Ground
  ,                                       !- Number of Vertices
  0, 0.0762, 3.048,                       !- X,Y,Z Vertex 1 {m}
  0, 0.0762, 3.9624,                      !- X,Y,Z Vertex 2 {m}
  0, 6.0198, 3.9624,                      !- X,Y,Z Vertex 3 {m}
  0, 6.0198, 3.048;                       !- X,Y,Z Vertex 4 {m}

OS:ThermalZone,
  {fbd80133-85f4-42d5-9721-aa7e024428c4}, !- Handle
  sp-2-Zone,                              !- Name
  ,                                       !- Multiplier
  ,                                       !- Ceiling Height {m}
  ,                                       !- Volume {m3}
  ,                                       !- Floor Area {m2}
  ,                                       !- Zone Inside Convection Algorithm
  ,                                       !- Zone Outside Convection Algorithm
  ,                                       !- Zone Conditioning Equipment List Name
  {da6c769e-5e3a-413a-9776-9258acc37d60}, !- Zone Air Inlet Port List
  {f5913123-43e7-4662-a9ed-85e562e50dc1}, !- Zone Air Exhaust Port List
  {c015b9d3-b36b-4789-9544-c65914f146df}, !- Zone Air Node Name
  ,                                       !- Zone Return Air Node Name
  ,                                       !- Primary Daylighting Control Name
  ,                                       !- Fraction of Zone Controlled by Primary Daylighting Control
  ,                                       !- Secondary Daylighting Control Name
  ,                                       !- Fraction of Zone Controlled by Secondary Daylighting Control
  ,                                       !- Illuminance Map Name