
OS:Version,
  {3b773a00-ee27-44e4-a985-bd1b7ccfa966}, !- Handle
  1.12.2;                                 !- Version Identifier

OS:SpaceType,
  {3ffd59c1-42ee-4993-82e0-44f3b616f818}, !- Handle
  189.1-2009 - Office - Lobby - CZ4-8,    !- Name
  ,                                       !- Default Construction Set Name
  {1fd2fde1-b37e-4c88-b32c-b323699acc90}, !- Default Schedule Set Name
  {f9b81c95-875f-4d42-bf01-cef2c60b8429}, !- Group Rendering Name
  {da15db88-b4d0-442a-8a44-c7301cc1fa98}, !- Design Specification Outdoor Air Object Name
  Office,                                 !- Standards Building Type
  Lobby;                                  !- Standards Space Type

OS:DefaultScheduleSet,
  {1fd2fde1-b37e-4c88-b32c-b323699acc90}, !- Handle
  189.1-2009 - Office - Lobby - CZ4-8 Schedule Set, !- Name
  ,                                       !- Hours of Operation Schedule Name
  {1db6168b-f2a6-45c4-9098-7db4670ee518}, !- Number of People Schedule Name
  {276b214b-a3ab-4ecf-be3f-a8d3bf1c7f94}, !- People Activity Level Schedule Name
  {845e789d-920e-4b4d-b54d-7c52a580e902}, !- Lighting Schedule Name
  {1a6d87c7-159d-4dd1-a578-7b7970f76f5b}, !- Electric Equipment Schedule Name
  ,                                       !- Gas Equipment Schedule Name
  ,                                       !- Hot Water Equipment Schedule Name
  {dcbd7e3d-5aca-4517-b8f8-db87bfd794f8}, !- Infiltration Schedule Name
  ,                                       !- Steam Equipment Schedule Name
  ;                                       !- Other Equipment Schedule Name

OS:Rendering:Color,
  {f9b81c95-875f-4d42-bf01-cef2c60b8429}, !- Handle
  Rendering Color 23,                     !- Name
  230,                                    !- Rendering Red Value
  157,                                    !- Rendering Green Value
  120;                                    !- Rendering Blue Value

OS:DesignSpecification:OutdoorAir,
  {da15db88-b4d0-442a-8a44-c7301cc1fa98}, !- Handle
  189.1-2009 - Office - Lobby - CZ4-8 Ventilation, !- Name
  Sum,                                    !- Outdoor Air Method
  0.007079211648,                         !- Outdoor Air Flow per Person {m3/s-person}
  ,                                       !- Outdoor Air Flow per Floor Area {m3/s-m2}
  ,                                       !- Outdoor Air Flow Rate {m3/s}
  ,                                       !- Outdoor Air Flow Air Changes per Hour {1/hr}
  ;                                       !- Outdoor Air Flow Rate Fraction Schedule Name

OS:Schedule:Ruleset,
  {1db6168b-f2a6-45c4-9098-7db4670ee518}, ! Handle
  Office Misc Occ,                        ! Name
  {9c1c2a81-a861-4c04-8714-734a9a1f8b05}, ! Schedule Type Limits Name
  {765b4fdb-c314-4a2f-8ae2-26f381e8e749}, ! Default Day Schedule Name
  {81a6d99a-f85f-416f-b8b4-420f2b8639eb}, ! Summer Design Day Schedule Name
  {fdfa7874-e769-4ef6-9af2-cbfafd6cb491}; ! Winter Design Day Schedule Name

OS:Schedule:Day,
  {765b4fdb-c314-4a2f-8ae2-26f381e8e749}, ! Handle
  Office Bldg Occ Default Schedule 1,     ! Name
  {9c1c2a81-a861-4c04-8714-734a9a1f8b05}, ! Schedule Type Limits Name
  ,                                       ! Interpolate to Timestep
  6,                                      !- Hour 1
  0,                                      !- Minute 1
  0,                                      !- Value Until Time 1
  7,                                      !- Hour 2
  0,                                      !- Minute 2
  0.100000001490116,                      !- Value Until Time 2
  8,                                      !- Hour 3
  0,                                      !- Minute 3
  0.200000002980232,                      !- Value Until Time 3
  20,                                     !- Hour 4
  0,                                      !- Minute 4
  0.400000005960464,                      !- Value Until Time 4
  22,                                     !- Hour 5
  0,                                      !- Minute 5
  0.100000001490116,                      !- Value Until Time 5
  24,                                     !- Hour 6
  0,                                      !- Minute 6
  0.0500000007450581;                     !- Value Until Time 6

OS:Schedule:Day,
  {81a6d99a-f85f-416f-b8b4-420f2b8639eb}, ! Handle
  Office Bldg Occ Summer Design Day 1,    ! Name
  {9c1c2a81-a861-4c04-8714-734a9a1f8b05}, ! Schedule Type Limits Name
  ,                                       ! Interpolate to Timestep
  6,                                      ! Hour 1
  0,                                      ! Minute 1
  0,                                      ! Value Until Time 1
  22,                                     ! Hour 2
  0,                                      ! Minute 2
  1,                                      ! Value Until Time 2
  24,                                     ! Hour 3
  0,                                      ! Minute 3
  0.050000000000000003;                   ! Value Until Time 3

OS:Schedule:Day,
  {fdfa7874-e769-4ef6-9af2-cbfafd6cb491}, ! Handle
  Office Bldg Occ Winter Design Day 1,    ! Name
  {9c1c2a81-a861-4c04-8714-734a9a1f8b05}, ! Schedule Type Limits Name
  ,                                       ! Interpolate to Timestep
  24,                                     ! Hour 1
  0,                                      ! Minute 1
  0;                                      ! Value Until Time 1

OS:Schedule:Rule,
  {6f3d2522-20a3-4cc7-95e4-d8d6f70e755c}, ! Handle
  Office Misc Occ Rule 1,                 ! Name
  {1db6168b-f2a6-45c4-9098-7db4670ee518}, ! Schedule Ruleset Name
  0,                                      ! Rule Order
  {13ff6aac-4ec7-4b2a-a9da-1f33e192fd78}, ! Day Schedule Name
  Yes,                                    ! Apply Sunday
  No,                                     ! Apply Monday
  No,                                     ! Apply Tuesday
  No,                                     ! Apply Wednesday
  No,                                     ! Apply Thursday
  No,                                     ! Apply Friday
  No,                                     ! Apply Saturday
  ,                                       ! Apply Holiday
  DateRange,                              ! Date Specification Type
  1,                                      ! Start Month
  1,                                      ! Start Day
  12,                                     ! End Month
  31;                                     ! End Day

OS:Schedule:Rule,
  {0a973b8f-4b22-441a-95b9-7347de1d681f}, ! Handle
  Office Misc Occ Rule 2,                 ! Name
  {1db6168b-f2a6-45c4-9098-7db4670ee518}, ! Schedule Ruleset Name
  1,                                      ! Rule Order
  {cef483dd-4346-40eb-9e38-7968281f44f6}, ! Day Schedule Name
  No,                                     ! Apply Sunday
  No,                                     ! Apply Monday
  No,                                     ! Apply Tuesday
  No,                                     ! Apply Wednesday
  No,                                     ! Apply Thursday
  No,                                     ! Apply Friday
  Yes,                                    ! Apply Saturday
  ,                                       ! Apply Holiday
  DateRange,                              ! Date Specification Type
  1,                                      ! Start Month
  1,                                      ! Start Day
  12,                                     ! End Month
  31;                                     ! End Day

OS:Schedule:Day,
  {13ff6aac-4ec7-4b2a-a9da-1f33e192fd78}, ! Handle
  Office Bldg Occ Rule 1 Day Schedule 1,  ! Name
  {9c1c2a81-a861-4c04-8714-734a9a1f8b05}, ! Schedule Type Limits Name
  ,                                       ! Interpolate to Timestep
  24,                                     ! Hour 1
  0,                                      ! Minute 1
  0;                                      ! Value Until Time 1

OS:Schedule:Day,
  {cef483dd-4346-40eb-9e38-7968281f44f6}, ! Handle
  Office Bldg Occ Rule 2 Day Schedule 1,  ! Name
  {9c1c2a81-a861-4c04-8714-734a9a1f8b05}, ! Schedule Type Limits Name
  ,                                       ! Interpolate to Timestep
  6,                                      !- Hour 1
  0,                                      !- Minute 1
  0,                                      !- Value Until Time 1
  8,                                      !- Hour 2
  0,                                      !- Minute 2
  0.100000001490116,                      !- Value Until Time 2
  14,                                     !- Hour 3
  0,                                      !- Minute 3
  0.25,                                   !- Value Until Time 3
  17,                                     !- Hour 4
  0,                                      !- Minute 4
  0.100000001490116,                      !- Value Until Time 4
  24,                                     !- Hour 5
  0,                                      !- Minute 5
  0;                                      !- Value Until Time 5

OS:Schedule:Ruleset,
  {276b214b-a3ab-4ecf-be3f-a8d3bf1c7f94}, ! Handle
  Office Activity,                        ! Name
  {98560537-5c9d-42b4-8ea6-8c189a97e1fb}, ! Schedule Type Limits Name
  {a59362c9-0fc4-4238-88d5-73ab86881461}, ! Default Day Schedule Name
  {f497e94b-b1c5-452d-a3ba-bba342fc3af3}, ! Summer Design Day Schedule Name
  {18ecd646-6c4a-44ce-a567-2007a4a6872d}; ! Winter Design Day Schedule Name

OS:Schedule:Day,
  {a59362c9-0fc4-4238-88d5-73ab86881461}, ! Handle
  Office Activity Default Schedule,       ! Name
  {98560537-5c9d-42b4-8ea6-8c189a97e1fb}, ! Schedule Type Limits Name
  ,                                       ! Interpolate to Timestep
  24,                                     !- Hour 1
  0,                                      !- Minute 1
  132;                                    !- Value Until Time 1

OS:Schedule:Day,
  {f497e94b-b1c5-452d-a3ba-bba342fc3af3}, ! Handle
  Office Activity Summer Design Day,      ! Name
  {98560537-5c9d-42b4-8ea6-8c189a97e1fb}, ! Schedule Type Limits Name
  ,                                       ! Interpolate to Timestep
  24,                                     !- Hour 1
  0,                                      !- Minute 1
  132;                                    !- Value Until Time 1

OS:Schedule:Day,
  {18ecd646-6c4a-44ce-a567-2007a4a6872d}, ! Handle
  Office Activity Winter Design Day,      ! Name
  {98560537-5c9d-42b4-8ea6-8c189a97e1fb}, ! Schedule Type Limits Name
  ,                                       ! Interpolate to Timestep
  24,                                     !- Hour 1
  0,                                      !- Minute 1
  132;                                    !- Value Until Time 1

OS:Schedule:Ruleset,
  {845e789d-920e-4b4d-b54d-7c52a580e902}, ! Handle
  Office Bldg Light,                      ! Name
  {9c1c2a81-a861-4c04-8714-734a9a1f8b05}, ! Schedule Type Limits Name
  {cb4f644b-9318-46d2-91b7-2011a174d57b}, ! Default Day Schedule Name
  {cdd2917b-9448-401a-aaf0-b8eed8bca7ae}, ! Summer Design Day Schedule Name
  {5f35ccbe-b69c-4a28-b36e-47baec72d915}; ! Winter Design Day Schedule Name

OS:Schedule:Day,
  {cb4f644b-9318-46d2-91b7-2011a174d57b}, ! Handle
  Office Bldg Light Default Schedule,     ! Name
  {9c1c2a81-a861-4c04-8714-734a9a1f8b05}, ! Schedule Type Limits Name
  ,                                       ! Interpolate to Timestep
  5,                                      !- Hour 1
  0,                                      !- Minute 1
  0.05,                                   !- Value Until Time 1
  7,                                      !- Hour 2
  0,                                      !- Minute 2
  0.1,                                    !- Value Until Time 2
  8,                                      !- Hour 3
  0,                                      !- Minute 3
  0.3,                                    !- Value Until Time 3
  17,                                     !- Hour 4
  0,                                      !- Minute 4
  0.9,                                    !- Value Until Time 4
  18,                                     !- Hour 5
  0,                                      !- Minute 5
  0.7,                                    !- Value Until Time 5
  20,                                     !- Hour 6
  0,                                      !- Minute 6
  0.5,                                    !- Value Until Time 6
  22,                                     !- Hour 7
  0,                                      !- Minute 7
  0.3,                                    !- Value Until Time 7
  23,                                     !- Hour 8
  0,                                      !- Minute 8
  0.1,                                    !- Value Until Time 8
  24,                                     !- Hour 9
  0,                                      !- Minute 9
  0.05;                                   !- Value Until Time 9

OS:Schedule:Day,
  {cdd2917b-9448-401a-aaf0-b8eed8bca7ae}, ! Handle
  Office Bldg Light Summer Design Day,    ! Name
  {9c1c2a81-a861-4c04-8714-734a9a1f8b05}, ! Schedule Type Limits Name
  ,                                       ! Interpolate to Timestep
  24,                                     ! Hour 1
  0,                                      ! Minute 1
  1;                                      ! Value Until Time 1

OS:Schedule:Day,
  {5f35ccbe-b69c-4a28-b36e-47baec72d915}, ! Handle
  Office Bldg Light Winter Design Day,    ! Name
  {9c1c2a81-a861-4c04-8714-734a9a1f8b05}, ! Schedule Type Limits Name
  ,                                       ! Interpolate to Timestep
  24,                                     ! Hour 1
  0,                                      ! Minute 1
  0;                                      ! Value Until Time 1

OS:Schedule:Rule,
  {989ad418-9385-4fbd-b9b3-86418f05a5df}, ! Handle
  Office Bldg Light Rule 1,               ! Name
  {845e789d-920e-4b4d-b54d-7c52a580e902}, ! Schedule Ruleset Name
  0,                                      ! Rule Order
  {5c6fc735-282c-447a-8f94-6f3ebed0e34c}, ! Day Schedule Name
  Yes,                                    ! Apply Sunday
  No,                                     ! Apply Monday
  No,                                     ! Apply Tuesday
  No,                                     ! Apply Wednesday
  No,                                     ! Apply Thursday
  No,                                     ! Apply Friday
  No,                                     ! Apply Saturday
  ,                                       ! Apply Holiday
  DateRange,                              ! Date Specification Type
  1,                                      ! Start Month
  1,                                      ! Start Day
  12,                                     ! End Month
  31;                                     ! End Day

OS:Schedule:Rule,
  {5332aa8f-7643-41fa-8878-eca2d6c75136}, ! Handle
  Office Bldg Light Rule 2,               ! Name
  {845e789d-920e-4b4d-b54d-7c52a580e902}, ! Schedule Ruleset Name
  1,                                      ! Rule Order
  {49c4cbcf-de0f-49b7-ac1e-4347ad9c8bd1}, ! Day Schedule Name
  No,                                     ! Apply Sunday
  No,                                     ! Apply Monday
  No,                                     ! Apply Tuesday
  No,                                     ! Apply Wednesday
  No,                                     ! Apply Thursday
  No,                                     ! Apply Friday
  Yes,                                    ! Apply Saturday
  ,                                       ! Apply Holiday
  DateRange,                              ! Date Specification Type
  1,                                      ! Start Month
  1,                                      ! Start Day
  12,                                     ! End Month
  31;                                     ! End Day

OS:Schedule:Day,
  {5c6fc735-282c-447a-8f94-6f3ebed0e34c}, ! Handle
  Office Bldg Light Rule 1 Day Schedule,  ! Name
  {9c1c2a81-a861-4c04-8714-734a9a1f8b05}, ! Schedule Type Limits Name
  ,                                       ! Interpolate to Timestep
  24,                                     ! Hour 1
  0,                                      ! Minute 1
  0.050000000000000003;                   ! Value Until Time 1

OS:Schedule:Day,
  {49c4cbcf-de0f-49b7-ac1e-4347ad9c8bd1}, ! Handle
  Office Bldg Light Rule 2 Day Schedule,  ! Name
  {9c1c2a81-a861-4c04-8714-734a9a1f8b05}, ! Schedule Type Limits Name
  ,                                       ! Interpolate to Timestep
  6,                                      ! Hour 1
  0,                                      ! Minute 1
  0.050000000000000003,                   ! Value Until Time 1
  8,                                      ! Hour 2
  0,                                      ! Minute 2
  0.10000000000000001,                    ! Value Until Time 2
  14,                                     ! Hour 3
  0,                                      ! Minute 3
  0.5,                                    ! Value Until Time 3
  17,                                     ! Hour 4
  0,                                      ! Minute 4
  0.14999999999999999,                    ! Value Until Time 4
  24,                                     ! Hour 5
  0,                                      ! Minute 5
  0.050000000000000003;                   ! Value Until Time 5

OS:Schedule:Ruleset,
  {1a6d87c7-159d-4dd1-a578-7b7970f76f5b}, ! Handle
  Office Bldg Equip,                      ! Name
  {9c1c2a81-a861-4c04-8714-734a9a1f8b05}, ! Schedule Type Limits Name
  {d3701a00-9b53-4170-a7e6-6ecafcc57ef5}, ! Default Day Schedule Name
  {8ec94f9c-1094-4401-bb0c-fa9a2646b2f4}, ! Summer Design Day Schedule Name
  {50c83985-85bc-477a-b51a-d516cf17091d}; ! Winter Design Day Schedule Name

OS:Schedule:Day,
  {d3701a00-9b53-4170-a7e6-6ecafcc57ef5}, ! Handle
  Office Bldg Equip Default Schedule,     ! Name
  {9c1c2a81-a861-4c04-8714-734a9a1f8b05}, ! Schedule Type Limits Name
  ,                                       ! Interpolate to Timestep
  8,                                      !- Hour 1
  0,                                      !- Minute 1
  0.4,                                    !- Value Until Time 1
  12,                                     !- Hour 2
  0,                                      !- Minute 2
  0.9,                                    !- Value Until Time 2
  13,                                     !- Hour 3
  0,                                      !- Minute 3
  0.8,                                    !- Value Until Time 3
  17,                                     !- Hour 4
  0,                                      !- Minute 4
  0.9,                                    !- Value Until Time 4
  18,                                     !- Hour 5
  0,                                      !- Minute 5
  0.8,                                    !- Value Until Time 5
  20,                                     !- Hour 6
  0,                                      !- Minute 6
  0.6,                                    !- Value Until Time 6
  22,                                     !- Hour 7
  0,                                      !- Minute 7
  0.5,                                    !- Value Until Time 7
  24,                                     !- Hour 8
  0,                                      !- Minute 8
  0.4;                                    !- Value Until Time 8

OS:Schedule:Day,
  {8ec94f9c-1094-4401-bb0c-fa9a2646b2f4}, ! Handle
  Office Bldg Equip Summer Design Day,    ! Name
  {9c1c2a81-a861-4c04-8714-734a9a1f8b05}, ! Schedule Type Limits Name
  ,                                       ! Interpolate to Timestep
  24,                                     ! Hour 1
  0,                                      ! Minute 1
  1;                                      ! Value Until Time 1

OS:Schedule:Day,
  {50c83985-85bc-477a-b51a-d516cf17091d}, ! Handle
  Office Bldg Equip Winter Design Day,    ! Name
  {9c1c2a81-a861-4c04-8714-734a9a1f8b05}, ! Schedule Type Limits Name
  ,                                       ! Interpolate to Timestep
  24,                                     ! Hour 1
  0,                                      ! Minute 1
  0;                                      ! Value Until Time 1

OS:Schedule:Rule,
  {b7035d8e-762c-4334-9385-bb00f8bdfaf0}, ! Handle
  Office Bldg Equip Rule 1,               ! Name
  {1a6d87c7-159d-4dd1-a578-7b7970f76f5b}, ! Schedule Ruleset Name
  0,                                      ! Rule Order
  {d23b9ef6-0359-4ee0-8c08-d756ed322a39}, ! Day Schedule Name
  Yes,                                    ! Apply Sunday
  No,                                     ! Apply Monday
  No,                                     ! Apply Tuesday
  No,                                     ! Apply Wednesday
  No,                                     ! Apply Thursday
  No,                                     ! Apply Friday
  No,                                     ! Apply Saturday
  ,                                       ! Apply Holiday
  DateRange,                              ! Date Specification Type
  1,                                      ! Start Month
  1,                                      ! Start Day
  12,                                     ! End Month
  31;                                     ! End Day

OS:Schedule:Rule,
  {658a8fc4-c222-481f-831c-0c4f10aa1f8b}, ! Handle
  Office Bldg Equip Rule 2,               ! Name
  {1a6d87c7-159d-4dd1-a578-7b7970f76f5b}, ! Schedule Ruleset Name
  1,                                      ! Rule Order
  {091dd9cc-e50d-4e78-b286-e6b5cbd0b006}, ! Day Schedule Name
  No,                                     ! Apply Sunday
  No,                                     ! Apply Monday
  No,                                     ! Apply Tuesday
  No,                                     ! Apply Wednesday
  No,                                     ! Apply Thursday
  No,                                     ! Apply Friday
  Yes,                                    ! Apply Saturday
  ,                                       ! Apply Holiday
  DateRange,                              ! Date Specification Type
  1,                                      ! Start Month
  1,                                      ! Start Day
  12,                                     ! End Month
  31;                                     ! End Day

OS:Schedule:Day,
  {d23b9ef6-0359-4ee0-8c08-d756ed322a39}, ! Handle
  Office Bldg Equip Rule 1 Day Schedule,  ! Name
  {9c1c2a81-a861-4c04-8714-734a9a1f8b05}, ! Schedule Type Limits Name
  ,                                       ! Interpolate to Timestep
  24,                                     ! Hour 1
  0,                                      ! Minute 1
  0.29999999999999999;                    ! Value Until Time 1

OS:Schedule:Day,
  {091dd9cc-e50d-4e78-b286-e6b5cbd0b006}, ! Handle
  Office Bldg Equip Rule 2 Day Schedule,  ! Name
  {9c1c2a81-a861-4c04-8714-734a9a1f8b05}, ! Schedule Type Limits Name
  ,                                       ! Interpolate to Timestep
  6,                                      ! Hour 1
  0,                                      ! Minute 1
  0.29999999999999999,                    ! Value Until Time 1
  8,                                      ! Hour 2
  0,                                      ! Minute 2
  0.40000000000000002,                    ! Value Until Time 2
  14,                                     ! Hour 3
  0,                                      ! Minute 3
  0.5,                                    ! Value Until Time 3
  17,                                     ! Hour 4
  0,                                      ! Minute 4
  0.34999999999999998,                    ! Value Until Time 4
  24,                                     ! Hour 5
  0,                                      ! Minute 5
  0.29999999999999999;                    ! Value Until Time 5

OS:Schedule:Ruleset,
  {dcbd7e3d-5aca-4517-b8f8-db87bfd794f8}, ! Handle
  Office Infil Quarter On,                ! Name
  {9c1c2a81-a861-4c04-8714-734a9a1f8b05}, ! Schedule Type Limits Name
  {f8a2f745-1f64-4e3a-b270-759c809fcd8e}, ! Default Day Schedule Name
  {3ceaf2ce-878f-4529-bc64-aabe57372aa9}, ! Summer Design Day Schedule Name
  {b623056e-abd0-4808-b2b7-86015122966e}; ! Winter Design Day Schedule Name

OS:Schedule:Day,
  {f8a2f745-1f64-4e3a-b270-759c809fcd8e}, ! Handle
  Office Infil Quarter On Default Schedule, ! Name
  {9c1c2a81-a861-4c04-8714-734a9a1f8b05}, ! Schedule Type Limits Name
  ,                                       ! Interpolate to Timestep
  6,                                      !- Hour 1
  0,                                      !- Minute 1
  1,                                      !- Value Until Time 1
  22,                                     !- Hour 2
  0,                                      !- Minute 2
  0.25,                                   !- Value Until Time 2
  24,                                     !- Hour 3
  0,                                      !- Minute 3
  1;                                      !- Value Until Time 3

OS:Schedule:Day,
  {3ceaf2ce-878f-4529-bc64-aabe57372aa9}, ! Handle
  Office Infil Quarter On Summer Design Day, ! Name
  {9c1c2a81-a861-4c04-8714-734a9a1f8b05}, ! Schedule Type Limits Name
  ,                                       ! Interpolate to Timestep
  6,                                      ! Hour 1
  0,                                      ! Minute 1
  1,                                      ! Value Until Time 1
  22,                                     ! Hour 2
  0,                                      ! Minute 2
  0.25,                                   ! Value Until Time 2
  24,                                     ! Hour 3
  0,                                      ! Minute 3
  1;                                      ! Value Until Time 3

OS:Schedule:Day,
  {b623056e-abd0-4808-b2b7-86015122966e}, ! Handle
  Office Infil Quarter On Winter Design Day, ! Name
  {9c1c2a81-a861-4c04-8714-734a9a1f8b05}, ! Schedule Type Limits Name
  ,                                       ! Interpolate to Timestep
  6,                                      ! Hour 1
  0,                                      ! Minute 1
  1,                                      ! Value Until Time 1
  18,                                     ! Hour 2
  0,                                      ! Minute 2
  0.25,                                   ! Value Until Time 2
  24,                                     ! Hour 3
  0,                                      ! Minute 3
  1;                                      ! Value Until Time 3

OS:Schedule:Rule,
  {b4a54fb6-fee0-4e3a-9c3d-db1b2aec4e85}, ! Handle
  Office Infil Quarter On Rule 1,         ! Name
  {dcbd7e3d-5aca-4517-b8f8-db87bfd794f8}, ! Schedule Ruleset Name
  0,                                      ! Rule Order
  {b54de488-701a-4361-a131-1564e67f4e31}, ! Day Schedule Name
  Yes,                                    ! Apply Sunday
  No,                                     ! Apply Monday
  No,                                     ! Apply Tuesday
  No,                                     ! Apply Wednesday
  No,                                     ! Apply Thursday
  No,                                     ! Apply Friday
  No,                                     ! Apply Saturday
  ,                                       ! Apply Holiday
  DateRange,                              ! Date Specification Type
  1,                                      ! Start Month
  1,                                      ! Start Day
  12,                                     ! End Month
  31;                                     ! End Day

OS:Schedule:Rule,
  {a5ab6cfd-01dd-4f52-894a-79cc3870cb49}, ! Handle
  Office Infil Quarter On Rule 2,         ! Name
  {dcbd7e3d-5aca-4517-b8f8-db87bfd794f8}, ! Schedule Ruleset Name
  1,                                      ! Rule Order
  {618cbc64-27c2-4aab-860b-a117a6c63ae7}, ! Day Schedule Name
  No,                                     ! Apply Sunday
  No,                                     ! Apply Monday
  No,                                     ! Apply Tuesday
  No,                                     ! Apply Wednesday
  No,                                     ! Apply Thursday
  No,                                     ! Apply Friday
  Yes,                                    ! Apply Saturday
  ,                                       ! Apply Holiday
  DateRange,                              ! Date Specification Type
  1,                                      ! Start Month
  1,                                      ! Start Day
  12,                                     ! End Month
  31;                                     ! End Day

OS:Schedule:Day,
  {b54de488-701a-4361-a131-1564e67f4e31}, ! Handle
  Office Infil Quarter On Rule 1 Day Schedule, ! Name
  {9c1c2a81-a861-4c04-8714-734a9a1f8b05}, ! Schedule Type Limits Name
  ,                                       ! Interpolate to Timestep
  24,                                     ! Hour 1
  0,                                      ! Minute 1
  1;                                      ! Value Until Time 1

OS:Schedule:Day,
  {618cbc64-27c2-4aab-860b-a117a6c63ae7}, ! Handle
  Office Infil Quarter On Rule 2 Day Schedule, ! Name
  {9c1c2a81-a861-4c04-8714-734a9a1f8b05}, ! Schedule Type Limits Name
  ,                                       ! Interpolate to Timestep
  6,                                      ! Hour 1
  0,                                      ! Minute 1
  1,                                      ! Value Until Time 1
  18,                                     ! Hour 2
  0,                                      ! Minute 2
  0.25,                                   ! Value Until Time 2
  24,                                     ! Hour 3
  0,                                      ! Minute 3
  1;                                      ! Value Until Time 3

OS:ScheduleTypeLimits,
  {9c1c2a81-a861-4c04-8714-734a9a1f8b05}, ! Handle
  Fraction,                               ! Name