
OS:Version,
  {2f5e1e70-18c4-4f6d-851f-408f8daa4a89}, !- Handle
  1.9.0;                                  !- Version Identifier

OS:Facility,
  {6911ae76-87c4-4f8f-8fae-8f196d57e854}; !- Handle

OS:Building,
  {a2bb8ab4-5528-442b-8cbe-3b1a7467df92}, !- Handle
  Building 1,                             !- Name
  ,                                       !- Building Sector Type
  ,                                       !- North Axis {deg}
  ,                                       !- Nominal Floor to Floor Height {m}
  ,                                       !- Space Type Name
  ,                                       !- Default Construction Set Name
  ,                                       !- Default Schedule Set Name
  ,                                       !- Standards Number of Stories
  ,                                       !- Standards Number of Above Ground Stories
  ,                                       !- Standards Building Type
  ,                                       !- Standards Number of Living Units
  ,                                       !- Relocatable
  ;                                       !- Nominal Floor to Ceiling Height {m}

OS:BuildingStory,
  {76bc8886-f063-418e-a51f-68bc8e35167f}, !- Handle
  Level 1,                                !- Name
  ,                                       !- Nominal Z Coordinate {m}
  ,                                       !- Nominal Floor to Floor Height {m}
  ,                                       !- Default Construction Set Name
  ,                                       !- Default Schedule Set Name
  {0fb988cc-b115-4cec-af44-71bfb834868d}; !- Group Rendering Name

OS:BuildingStory,
  {9fd2d0ae-6f1b-45c8-94e7-c53bc8e98408}, !- Handle
  Level 2,                                !- Name
  ,                                       !- Nominal Z Coordinate {m}
  3.9624,                                 !- Nominal Floor to Floor Height {m}
  ,                                       !- Default Construction Set Name
  ,                                       !- Default Schedule Set Name
  {d92a01ab-3c21-4b3c-b95c-254b6908f46d}; !- Group Rendering Name

OS:BuildingStory,
  {67bfab5c-d383-45b5-8758-6a7ebc2cddfd}, !- Handle
  Level 3,                                !- Name
  ,                                       !- Nominal Z Coordinate {m}
  7.9248,                                 !- Nominal Floor to Floor Height {m}
  ,                                       !- Default Construction Set Name
  ,                                       !- Default Schedule Set Name
  {9b22e0e1-5af6-4d23-95cc-d06672377e3a}; !- Group Rendering Name

OS:Space,
  {32a39f11-a001-4c91-b4d3-b9ba96438a99}, !- Handle
  sp-2-Space,                             !- Name
  ,                                       !- Space Type Name
  ,                                       !- Default Construction Set Name
  ,                                       !- Default Schedule Set Name
  ,                                       !- Direction of Relative North {deg}
  ,                                       !- X Origin {m}
  ,                                       !- Y Origin {m}
  ,                                       !- Z Origin {m}
  {76bc8886-f063-418e-a51f-68bc8e35167f}, !- Building Story Name
  {746c9d3c-0abc-4568-80c6-4b300735670e}; !- Thermal Zone Name

OS:Surface,
  {5fcce96d-5886-43d9-b233-0b4e997818e8}, !- Handle
  Surface 1,                              !- Name
  Floor,                                  !- Surface Type
  ,                                       !- Construction Name
  {32a39f11-a001-4c91-b4d3-b9ba96438a99}, !- Space Name
  Ground,                                 !- Outside Boundary Condition
  ,                                       !- Outside Boundary Condition Object
  NoSun,                                  !- Sun Exposure
  NoWind,                                 !- Wind Exposure
  ,                                       !- View Factor to Ground
  ,                                       !- Number of Vertices
  0, 4.572, 0,                            !- X,Y,Z Vertex 1 {m}
  0, 0, 0,                                !- X,Y,Z Vertex 2 {m}
  -12.192, 0, 0,                          !- X,Y,Z Vertex 3 {m}
  -12.192, 4.572, 0;                      !- X,Y,Z Vertex 4 {m}

OS:Surface,
  {25c976fc-c7f1-4a8b-a349-5e14c73fdb19}, !- Handle
  Surface 2,                              !- Name
  Wall,                                   !- Surface Type
  ,                                       !- Construction Name
  {32a39f11-a001-4c91-b4d3-b9ba96438a99}, !- Space Name
  Outdoors,                               !- Outside Boundary Condition
  ,                                       !- Outside Boundary Condition Object
  SunExposed,                             !- Sun Exposure
  WindExposed,                            !- Wind Exposure
  ,                                       !- View Factor to Ground
  ,                                       !- Number of Vertices
  -12.192, 4.572, 3.9624,                 !- X,Y,Z Vertex 1 {m}
  -12.192, 4.572, 0,                      !- X,Y,Z Vertex 2 {m}
  -12.192, 0, 0,                          !- X,Y,Z Vertex 3 {m}
  -12.192, 0, 3.9624;                     !- X,Y,Z Vertex 4 {m}

OS:Surface,
  {0d5312ea-e54f-42d4-8297-726c6eaf8a6f}, !- Handle
  Surface 3,                              !- Name
  Wall,                                   !- Surface Type
  ,                                       !- Construction Name
  {32a39f11-a001-4c91-b4d3-b9ba96438a99}, !- Space Name
  Surface,                                !- Outside Boundary Condition
  {4ae753c3-e9d9-4f7f-9954-9bcb9aedebd6}, !- Outside Boundary Condition Object
  NoSun,                                  !- Sun Exposure
  NoWind,                                 !- Wind Exposure
  ,                                       !- View Factor to Ground
  ,                                       !- Number of Vertices
  0, 4.572, 3.9624,                       !- X,Y,Z Vertex 1 {m}
  0, 4.572, 0,                            !- X,Y,Z Vertex 2 {m}
  -12.192, 4.572, 0,                      !- X,Y,Z Vertex 3 {m}
  -12.192, 4.572, 3.9624;                 !- X,Y,Z Vertex 4 {m}

OS:Surface,
  {72d5e1ff-abd5-4991-931e-1579879d00af}, !- Handle
  Surface 4,                              !- Name
  Wall,                                   !- Surface Type
  ,                                       !- Construction Name
  {32a39f11-a001-4c91-b4d3-b9ba96438a99}, !- Space Name
  Outdoors,                               !- Outside Boundary Condition
  ,                                       !- Outside Boundary Condition Object
  SunExposed,                             !- Sun Exposure
  WindExposed,                            !- Wind Exposure
  ,                                       !- View Factor to Ground
  ,                                       !- Number of Vertices
  0, 0, 3.9624,                           !- X,Y,Z Vertex 1 {m}
  0, 0, 0,                                !- X,Y,Z Vertex 2 {m}
  0, 4.572, 0,                            !- X,Y,Z Vertex 3 {m}
  0, 4.572, 3.9624;                       !- X,Y,Z Vertex 4 {m}

OS:Surface,
  {68d0f37d-ea34-4508-89f4-3fdde31cb6cc}, !- Handle
  Surface 5,                              !- Name
  Wall,                                   !- Surface Type
  ,                                       !- Construction Name
  {32a39f11-a001-4c91-b4d3-b9ba96438a99}, !- Space Name
  Outdoors,                               !- Outside Boundary Condition
  ,                                       !- Outside Boundary Condition Object
  SunExposed,                             !- Sun Exposure
  WindExposed,                            !- Wind Exposure
  ,                                       !- View Factor to Ground
  ,                                       !- Number of Vertices
  -12.192, 0, 3.9624,                     !- X,Y,Z Vertex 1 {m}
  -12.192, 0, 0,                          !- X,Y,Z Vertex 2 {m}
  0, 0, 0,                                !- X,Y,Z Vertex 3 {m}
  0, 0, 3.9624;                           !- X,Y,Z Vertex 4 {m}

OS:Surface,
  {b62994c0-247d-4a36-81fe-bded57edc397}, !- Handle
  Surface 6,                              !- Name
  RoofCeiling,                            !- Surface Type
  ,                                       !- Construction Name
  {32a39f11-a001-4c91-b4d3-b9ba96438a99}, !- Space Name
  Outdoors,                               !- Outside Boundary Condition
  ,                                       !- Outside Boundary Condition Object
  SunExposed,                             !- Sun Exposure
  WindExposed,                            !- Wind Exposure
  ,                                       !- View Factor to Ground
  ,                                       !- Number of Vertices
  0, 0, 3.9624,                           !- X,Y,Z Vertex 1 {m}
  0, 4.572, 3.9624,                       !- X,Y,Z Vertex 2 {m}
  -12.192, 4.572, 3.9624,                 !- X,Y,Z Vertex 3 {m}
  -12.192, 0, 3.9624;                     !- X,Y,Z Vertex 4 {m}

OS:Space,
  {0249b37c-5d2a-4cc5-989c-15ac4d0b14bc}, !- Handle
  sp-3-Space,                             !- Name
  ,                                       !- Space Type Name
  ,                                       !- Default Construction Set Name
  ,                                       !- Default Schedule Set Name
  ,                                       !- Direction of Relative North {deg}
  ,                                       !- X Origin {m}
  ,                                       !- Y Origin {m}
  ,                                       !- Z Origin {m}
  {76bc8886-f063-418e-a51f-68bc8e35167f}, !- Building Story Name
  {2b62e3ef-33a8-45d0-9c6d-3b9739703c30}; !- Thermal Zone Name

OS:Surface,
  {b57a77ab-f1ae-4078-b010-e3d6af68d59c}, !- Handle
  Surface 7,                              !- Name
  Floor,                                  !- Surface Type
  ,                                       !- Construction Name
  {0249b37c-5d2a-4cc5-989c-15ac4d0b14bc}, !- Space Name
  Ground,                                 !- Outside Boundary Condition
  ,                                       !- Outside Boundary Condition Object
  NoSun,                                  !- Sun Exposure
  NoWind,                                 !- Wind Exposure
  ,                                       !- View Factor to Ground
  ,                                       !- Number of Vertices
  0, 15.24, 0,                            !- X,Y,Z Vertex 1 {m}
  0, 4.572, 0,                            !- X,Y,Z Vertex 2 {m}
  -12.192, 4.572, 0,                      !- X,Y,Z Vertex 3 {m}
  -12.192, 15.24, 0;                      !- X,Y,Z Vertex 4 {m}

OS:Surface,
  {f1f37e09-7732-4f46-9854-e544b11856b7}, !- Handle
  Surface 8,                              !- Name
  Wall,                                   !- Surface Type
  ,                                       !- Construction Name
  {0249b37c-5d2a-4cc5-989c-15ac4d0b14bc}, !- Space Name
  Outdoors,                               !- Outside Boundary Condition
  ,                                       !- Outside Boundary Condition Object
  SunExposed,                             !- Sun Exposure
  WindExposed,                            !- Wind Exposure
  ,                                       !- View Factor to Ground
  ,                                       !- Number of Vertices
  -12.192, 15.24, 3.9624,                 !- X,Y,Z Vertex 1 {m}
  -12.192, 15.24, 0,                      !- X,Y,Z Vertex 2 {m}
  -12.192, 4.572, 0,                      !- X,Y,Z Vertex 3 {m}
  -12.192, 4.572, 3.9624;                 !- X,Y,Z Vertex 4 {m}

OS:Surface,
  {f832e532-9d16-4b90-aa87-bc5ca1cfdaca}, !- Handle
  Surface 9,                              !- Name
  Wall,                                   !- Surface Type
  ,                                       !- Construction Name
  {0249b37c-5d2a-4cc5-989c-15ac4d0b14bc}, !- Space Name
  Outdoors,                               !- Outside Boundary Condition
  ,                                       !- Outside Boundary Condition Object
  SunExposed,                             !- Sun Exposure
  WindExposed,                            !- Wind Exposure
  ,                                       !- View Factor to Ground
  ,                                       !- Number of Vertices
  0, 15.24, 3.9624,                       !- X,Y,Z Vertex 1 {m}
  0, 15.24, 0,                            !- X,Y,Z Vertex 2 {m}
  -12.192, 15.24, 0,                      !- X,Y,Z Vertex 3 {m}
  -12.192, 15.24, 3.9624;                 !- X,Y,Z Vertex 4 {m}

OS:Surface,
  {01c0715d-641c-4a16-9176-4b2d328dd1f2}, !- Handle
  Surface 10,                             !- Name
  Wall,                                   !- Surface Type
  ,                                       !- Construction Name
  {0249b37c-5d2a-4cc5-989c-15ac4d0b14bc}, !- Space Name
  Outdoors,                               !- Outside Boundary Condition
  ,                                       !- Outside Boundary Condition Object
  SunExposed,                             !- Sun Exposure
  WindExposed,                            !- Wind Exposure
  ,                                       !- View Factor to Ground
  ,                                       !- Number of Vertices
  0, 4.572, 3.9624,                       !- X,Y,Z Vertex 1 {m}
  0, 4.572, 0,                            !- X,Y,Z Vertex 2 {m}
  0, 15.24, 0,                            !- X,Y,Z Vertex 3 {m}
  0, 15.24, 3.9624;                       !- X,Y,Z Vertex 4 {m}

OS:Surface,
  {4ae753c3-e9d9-4f7f-9954-9bcb9aedebd6}, !- Handle
  Surface 11,                             !- Name
  Wall,                                   !- Surface Type
  ,                                       !- Construction Name
  {0249b37c-5d2a-4cc5-989c-15ac4d0b14bc}, !- Space Name
  Surface,                                !- Outside Boundary Condition
  {0d5312ea-e54f-42d4-8297-726c6eaf8a6f}, !- Outside Boundary Condition Object
  NoSun,                                  !- Sun Exposure
  NoWind,                                 !- Wind Exposure
  ,                                       !- View Factor to Ground
  ,                                       !- Number of Vertices
  -12.192, 4.572, 3.9624,                 !- X,Y,Z Vertex 1 {m}
  -12.192, 4.572, 0,                      !- X,Y,Z Vertex 2 {m}
  0, 4.572, 0,                            !- X,Y,Z Vertex 3 {m}
  0, 4.572, 3.9624;                       !- X,Y,Z Vertex 4 {m}

OS:Surface,
  {01858a56-e168-4857-b033-2806ac74e703}, !- Handle
  Surface 12,                             !- Name
  RoofCeiling,                            !- Surface Type
  ,                                       !- Construction Name
  {0249b37c-5d2a-4cc5-989c-15ac4d0b14bc}, !- Space Name
  Outdoors,                               !- Outside Boundary Condition
  ,                                       !- Outside Boundary Condition Object
  SunExposed,                             !- Sun Exposure
  WindExposed,                            !- Wind Exposure
  ,                                       !- View Factor to Ground
  ,                                       !- Number of Vertices
  0, 4.572, 3.9624,                       !- X,Y,Z Vertex 1 {m}
  0, 15.24, 3.9624,                       !- X,Y,Z Vertex 2 {m}
  -12.192, 15.24, 3.9624,                 !- X,Y,Z Vertex 3 {m}
  -12.192, 4.572, 3.9624;                 !- X,Y,Z Vertex 4 {m}

OS:Space,
  {ad65d807-17b8-42b4-be12-4f55e4d02e61}, !- Handle
  sp-4-Space,                             !- Name
  ,                                       !- Space Type Name
  ,                                       !- Default Construction Set Name
  ,                                       !- Default Schedule Set Name
  ,                                       !- Direction of Relative North {deg}
  ,                                       !- X Origin {m}
  ,                                       !- Y Origin {m}
  ,                                       !- Z Origin {m}
  {76bc8886-f063-418e-a51f-68bc8e35167f}, !- Building Story Name
  {2d7126f4-9e0d-42d2-b3b5-058f919a8563}; !- Thermal Zone Name

OS:Surface,
  {14306524-6d58-4c60-91f3-b0bf64df75f8}, !- Handle
  Surface 13,                             !- Name
  Floor,                                  !- Surface Type
  ,                                       !- Construction Name
  {ad65d807-17b8-42b4-be12-4f55e4d02e61}, !- Space Name
  Ground,                                 !- Outside Boundary Condition
  ,                                       !- Outside Boundary Condition Object
  NoSun,                                  !- Sun Exposure
  NoWind,                                 !- Wind Exposure
  ,                                       !- View Factor to Ground
  ,                                       !- Number of Vertices
  15.24, 15.24, 0,                        !- X,Y,Z Vertex 1 {m}
  15.24, 0, 0,                            !- X,Y,Z Vertex 2 {m}
  0, 0, 0,                                !- X,Y,Z Vertex 3 {m}
  0, 15.24, 0;                            !- X,Y,Z Vertex 4 {m}

OS:Surface,
  {1b4384d7-81bb-4625-8388-a01f0928eb7a}, !- Handle
  Surface 14,                             !- Name
  Wall,                                   !- Surface Type
  ,                                       !- Construction Name
  {ad65d807-17b8-42b4-be12-4f55e4d02e61}, !- Space Name
  Outdoors,                               !- Outside Boundary Condition
  ,                                       !- Outside Boundary Condition Object
  SunExposed,                             !- Sun Exposure
  WindExposed,                            !- Wind Exposure
  ,                                       !- View Factor to Ground
  ,                                       !- Number of Vertices
  0, 15.24, 7.9248,                       !- X,Y,Z Vertex 1 {m}
  0, 15.24, 0,                            !- X,Y,Z Vertex 2 {m}
  0, 0, 0,                                !- X,Y,Z Vertex 3 {m}
  0, 0, 7.9248;                           !- X,Y,Z Vertex 4 {m}

OS:Surface,
  {1a6d0b00-fe57-416a-98fb-c19dfe93408d}, !- Handle
  Surface 15,                             !- Name
  Wall,                                   !- Surface Type
  ,                                       !- Construction Name
  {ad65d807-17b8-42b4-be12-4f55e4d02e61}, !- Space Name
  Outdoors,                               !- Outside Boundary Condition
  ,                                       !- Outside Boundary Condition Object
  SunExposed,                             !- Sun Exposure
  WindExposed,                            !- Wind Exposure
  ,                                       !- View Factor to Ground
  ,                                       !- Number of Vertices
  15.24, 15.24, 7.9248,                   !- X,Y,Z Vertex 1 {m}
  15.24, 15.24, 0,                        !- X,Y,Z Vertex 2 {m}
  0, 15.24, 0,                            !- X,Y,Z Vertex 3 {m}
  0, 15.24, 7.9248;                       !- X,Y,Z Vertex 4 {m}

OS:Surface,
  {2b1f232e-7278-4a54-8c58-38d8c728c4fa}, !- Handle
  Surface 16,                             !- Name
  Wall,                                   !- Surface Type
  ,                                       !- Construction Name
  {ad65d807-17b8-42b4-be12-4f55e4d02e61}, !- Space Name
  Outdoors,                               !- Outside Boundary Condition
  ,                                       !- Outside Boundary Condition Object
  SunExposed,                             !- Sun Exposure
  WindExposed,                            !- Wind Exposure
  ,                                       !- View Factor to Ground
  ,                                       !- Number of Vertices
  15.24, 0, 7.9248,                       !- X,Y,Z Vertex 1 {m}
  15.24, 0, 0,                            !- X,Y,Z Vertex 2 {m}
  15.24, 15.24, 0,                        !- X,Y,Z Vertex 3 {m}
  15.24, 15.24, 7.9248;                   !- X,Y,Z Vertex 4 {m}

OS:Surface,
  {f2944056-dd7b-4786-9acb-13e2d1cdeed8}, !- Handle
  Surface 17,                             !- Name
  Wall,                                   !- Surface Type
  ,                                       !- Construction Name
  {ad65d807-17b8-42b4-be12-4f55e4d02e61}, !- Space Name
  Outdoors,                               !- Outside Boundary Condition
  ,                                       !- Outside Boundary Condition Object
  SunExposed,                             !- Sun Exposure
  WindExposed,                            !- Wind Exposure
  ,                                       !- View Factor to Ground
  ,                                       !- Number of Vertices
  0, 0, 7.9248,                           !- X,Y,Z Vertex 1 {m}
  0, 0, 0,                                !- X,Y,Z Vertex 2 {m}
  15.24, 0, 0,                            !- X,Y,Z Vertex 3 {m}
  15.24, 0, 7.9248;                       !- X,Y,Z Vertex 4 {m}

OS:Surface,
  {b57db73e-f732-4c90-9725-e7ddb9343e00}, !- Handle
  Surface 18,                             !- Name
  RoofCeiling,                            !- Surface Type
  ,                                       !- Construction Name
  {ad65d807-17b8-42b4-be12-4f55e4d02e61}, !- Space Name
  Outdoors,                               !- Outside Boundary Condition
  ,                                       !- Outside Boundary Condition Object
  SunExposed,                             !- Sun Exposure
  WindExposed,                            !- Wind Exposure
  ,                                       !- View Factor to Ground
  ,                                       !- Number of Vertices
  15.24, 0, 7.9248,                       !- X,Y,Z Vertex 1 {m}
  15.24, 15.24, 7.9248,                   !- X,Y,Z Vertex 2 {m}
  0, 15.24, 7.9248,                       !- X,Y,Z Vertex 3 {m}
  0, 0, 7.9248;                           !- X,Y,Z Vertex 4 {m}

OS:Space,
  {6935fe50-a927-456f-b215-65bf319107bc}, !- Handle
  sp-5-Space,                             !- Name
  ,                                       !- Space Type Name
  ,                                       !- Default Construction Set Name
  ,                                       !- Default Schedule Set Name
  ,                                       !- Direction of Relative North {deg}
  ,                                       !- X Origin {m}
  ,                                       !- Y Origin {m}
  ,                                       !- Z Origin {m}
  {9fd2d0ae-6f1b-45c8-94e7-c53bc8e98408}, !- Building Story Name
  {036d95d9-a434-48e6-b1fb-1d15c261a8b3}; !- Thermal Zone Name

OS:Surface,
  {f399d033-6d58-40f5-815c-fe433420a9f1}, !- Handle
  Surface 19,                             !- Name
  Floor,                                  !- Surface Type
  ,                                       !- Construction Name
  {6935fe50-a927-456f-b215-65bf319107bc}, !- Space Name
  Ground,                                 !- Outside Boundary Condition
  ,                                       !- Outside Boundary Condition Object
  NoSun,                                  !- Sun Exposure
  NoWind,                                 !- Wind Exposure
  ,                                       !- View Factor to Ground
  ,                                       !- Number of Vertices
  0, 10.668, 3.9624,                      !- X,Y,Z Vertex 1 {m}
  0, 0, 3.9624,                           !- X,Y,Z Vertex 2 {m}
  -12.192, 0, 3.9624,                     !- X,Y,Z Vertex 3 {m}
  -12.192, 10.668, 3.9624;                !- X,Y,Z Vertex 4 {m}

OS:Surface,
  {a84067ea-38c8-48b0-9de2-54c5ffa5e8b6}, !- Handle
  Surface 20,                             !- Name
  Wall,                                   !- Surface Type
  ,                                       !- Construction Name
  {6935fe50-a927-456f-b215-65bf319107bc}, !- Space Name
  Outdoors,                               !- Outside Boundary Condition
  ,                                       !- Outside Boundary Condition Object
  SunExposed,                             !- Sun Exposure
  WindExposed,                            !- Wind Exposure
  ,                                       !- View Factor to Ground
  ,                                       !- Number of Vertices
  -12.192, 10.668, 7.9248,                !- X,Y,Z Vertex 1 {m}
  -12.192, 10.668, 3.9624,                !- X,Y,Z Vertex 2 {m}
  -12.192, 0, 3.9624,                     !- X,Y,Z Vertex 3 {m}
  -12.192, 0, 7.9248;                     !- X,Y,Z Vertex 4 {m}

OS:Surface,
  {9c45f220-7a0e-464a-9afb-41ac6134f1ef}, !- Handle
  Surface 21,                             !- Name
  Wall,                                   !- Surface Type
  ,                                       !- Construction Name
  {6935fe50-a927-456f-b215-65bf319107bc}, !- Space Name
  Surface,                                !- Outside Boundary Condition
  {d75df051-a975-4b97-ad9c-2d719da7583c}, !- Outside Boundary Condition Object
  NoSun,                                  !- Sun Exposure
  NoWind,                                 !- Wind Exposure
  ,                                       !- View Factor to Ground
  ,                                       !- Number of Vertices
  0, 10.668, 7.9248,                      !- X,Y,Z Vertex 1 {m}
  0, 10.668, 3.9624,                      !- X,Y,Z Vertex 2 {m}
  -12.192, 10.668, 3.9624,                !- X,Y,Z Vertex 3 {m}
  -12.192, 10.668, 7.9248;                !- X,Y,Z Vertex 4 {m}

OS:Surface,
  {6580593b-4a81-43b5-885a-edaefc5b8c35}, !- Handle
  Surface 22,                             !- Name
  Wall,                                   !- Surface Type
  ,                                       !- Construction Name
  {6935fe50-a927-456f-b215-65bf319107bc}, !- Space Name
  Outdoors,                               !- Outside Boundary Condition
  ,                                       !- Outside Boundary Condition Object
  SunExposed,                             !- Sun Exposure
  WindExposed,                            !- Wind Exposure
  ,                                       !- View Factor to Ground
  ,                                       !- Number of Vertices
  0, 0, 7.9248,                           !- X,Y,Z Vertex 1 {m}
  0, 0, 3.9624,                           !- X,Y,Z Vertex 2 {m}
  0, 10.668, 3.9624,                      !- X,Y,Z Vertex 3 {m}
  0, 10.668, 7.9248;                      !- X,Y,Z Vertex 4 {m}

OS:Surface,
  {0cf83117-d384-47d3-96e0-c54e0b7bfc38}, !- Handle
  Surface 23,                             !- Name
  Wall,                                   !- Surface Type
  ,                                       !- Construction Name
  {6935fe50-a927-456f-b215-65bf319107bc}, !- Space Name
  Outdoors,                               !- Outside Boundary Condition
  ,                                       !- Outside Boundary Condition Object
  SunExposed,                             !- Sun Exposure
  WindExposed,                            !- Wind Exposure
  ,                                       !- View Factor to Ground
  ,                                       !- Number of Vertices
  -12.192, 0, 7.9248,                     !- X,Y,Z Vertex 1 {m}
  -12.192, 0, 3.9624,                     !- X,Y,Z Vertex 2 {m}
  0, 0, 3.9624,                           !- X,Y,Z Vertex 3 {m}
  0, 0, 7.9248;                           !- X,Y,Z Vertex 4 {m}

OS:Surface,
  {d521e2f7-d1ce-479a-a8fb-48e22989ce27}, !- Handle
  Surface 24,                             !- Name
  RoofCeiling,                            !- Surface Type
  ,                                       !- Construction Name
  {6935fe50-a927-456f-b215-65bf319107bc}, !- Space Name
  Outdoors,                               !- Outside Boundary Condition
  ,                                       !- Outside Boundary Condition Object
  SunExposed,                             !- Sun Exposure
  WindExposed,                            !- Wind Exposure
  ,                                       !- View Factor to Ground
  ,                                       !- Number of Vertices
  0, 0, 7.9248,                           !- X,Y,Z Vertex 1 {m}
  0, 10.668, 7.9248,                      !- X,Y,Z Vertex 2 {m}
  -12.192, 10.668, 7.9248,                !- X,Y,Z Vertex 3 {m}
  -12.192, 0, 7.9248;                     !- X,Y,Z Vertex 4 {m}

OS:Space,
  {21487f8b-a08d-4a2b-a58a-7afb6364ef44}, !- Handle
  sp-6-Space,                             !- Name
  ,                                       !- Space Type Name
  ,                                       !- Default Construction Set Name
  ,                                       !- Default Schedule Set Name
  ,                                       !- Direction of Relative North {deg}
  ,                                       !- X Origin {m}
  ,                                       !- Y Origin {m}
  ,                                       !- Z Origin {m}
  {9fd2d0ae-6f1b-45c8-94e7-c53bc8e98408}, !- Building Story Name
  {53dbeb48-20ca-447f-b39f-76951dad8dc7}; !- Thermal Zone Name

OS:Surface,
  {3ca977c3-30f3-48c4-91c8-aa9123b67855}, !- Handle
  Surface 25,                             !- Name
  Floor,                                  !- Surface Type
  ,                                       !- Construction Name
  {21487f8b-a08d-4a2b-a58a-7afb6364ef44}, !- Space Name
  Ground,                                 !- Outside Boundary Condition
  ,                                       !- Outside Boundary Condition Object
  NoSun,                                  !- Sun Exposure
  NoWind,                                 !- Wind Exposure
  ,                                       !- View Factor to Ground
  ,                                       !- Number of Vertices
  0, 15.24, 3.9624,                       !- X,Y,Z Vertex 1 {m}
  0, 10.668, 3.9624,                      !- X,Y,Z Vertex 2 {m}
  -12.192, 10.668, 3.9624,                !- X,Y,Z Vertex 3 {m}
  -12.192, 15.24, 3.9624;                 !- X,Y,Z Vertex 4 {m}

OS:Surface,
  {92ad7371-4045-47c0-9899-1e604fd16d1b}, !- Handle
  Surface 26,                             !- Name
  Wall,                                   !- Surface Type