
OS:Version,
  {e18ef3f1-36e6-4c36-af08-81d215517a3b}, !- Handle
  1.9.0;                                  !- Version Identifier

OS:Facility,
  {7abd10cd-6f54-42ee-b156-37da812ebe69}; !- Handle

OS:Building,
  {e58810c5-aee2-4ec9-b1d3-d95b8ff623b2}, !- Handle
  Building 1,                             !- Name
  ,                                       !- Building Sector Type
  ,                                       !- North Axis {deg}
  ,                                       !- Nominal Floor to Floor Height {m}
  ,                                       !- Space Type Name
  ,                                       !- Default Construction Set Name
  ;                                       !- Default Schedule Set Name

OS:BuildingStory,
  {3853f857-8a16-481a-93bb-3732983c39c8}, !- Handle
  Level 1,                                !- Name
  ,                                       !- Nominal Z Coordinate {m}
  ,                                       !- Nominal Floor to Floor Height {m}
  ,                                       !- Default Construction Set Name
  ,                                       !- Default Schedule Set Name
  ;                                       !- Group Rendering Name

OS:BuildingStory,
  {232bf6da-bb59-4bd3-aa43-65dd93243208}, !- Handle
  Level 2,                                !- Name
  ,                                       !- Nominal Z Coordinate {m}
  3.9624,                                 !- Nominal Floor to Floor Height {m}
  ,                                       !- Default Construction Set Name
  ,                                       !- Default Schedule Set Name
  ;                                       !- Group Rendering Name

OS:BuildingStory,
  {6dba65d8-ff5a-4012-a5db-97ec63138594}, !- Handle
  Level 3,                                !- Name
  ,                                       !- Nominal Z Coordinate {m}
  7.9248,                                 !- Nominal Floor to Floor Height {m}
  ,                                       !- Default Construction Set Name
  ,                                       !- Default Schedule Set Name
  ;                                       !- Group Rendering Name

OS:Space,
  {f17b50a1-8d4b-41da-8bcd-6ac58fa001ec}, !- Handle
  sp-2-Space,                             !- Name
  ,                                       !- Space Type Name
  ,                                       !- Default Construction Set Name
  ,                                       !- Default Schedule Set Name
  ,                                       !- Direction of Relative North {deg}
  ,                                       !- X Origin {m}
  ,                                       !- Y Origin {m}
  ,                                       !- Z Origin {m}
  {3853f857-8a16-481a-93bb-3732983c39c8}, !- Building Story Name
  {5c29d06d-ea65-4637-9cdc-00cb7ce7e2d8}; !- Thermal Zone Name

OS:Surface,
  {deee10fb-667a-44c8-9fb4-98041128558c}, !- Handle
  Surface 1,                              !- Name
  Floor,                                  !- Surface Type
  ,                                       !- Construction Name
  {f17b50a1-8d4b-41da-8bcd-6ac58fa001ec}, !- Space Name
  Ground,                                 !- Outside Boundary Condition
  ,                                       !- Outside Boundary Condition Object
  NoSun,                                  !- Sun Exposure
  NoWind,                                 !- Wind Exposure
  ,                                       !- View Factor to Ground
  ,                                       !- Number of Vertices
  -12.192, 0, 0,                          !- X,Y,Z Vertex 1 {m}
  -12.192, 4.572, 0,                      !- X,Y,Z Vertex 2 {m}
  0, 4.572, 0,                            !- X,Y,Z Vertex 3 {m}
  0, 0, 0;                                !- X,Y,Z Vertex 4 {m}

OS:Surface,
  {4d9632c0-57ed-4dca-a177-d43223a3ebea}, !- Handle
  Surface 2,                              !- Name
  Wall,                                   !- Surface Type
  ,                                       !- Construction Name
  {f17b50a1-8d4b-41da-8bcd-6ac58fa001ec}, !- Space Name
  Outdoors,                               !- Outside Boundary Condition
  ,                                       !- Outside Boundary Condition Object
  SunExposed,                             !- Sun Exposure
  WindExposed,                            !- Wind Exposure
  ,                                       !- View Factor to Ground
  ,                                       !- Number of Vertices
  -12.192, 4.572, 3.9624,                 !- X,Y,Z Vertex 1 {m}
  -12.192, 4.572, 0,                      !- X,Y,Z Vertex 2 {m}
  -12.192, 0, 0,                          !- X,Y,Z Vertex 3 {m}
  -12.192, 0, 3.9624;                     !- X,Y,Z Vertex 4 {m}

OS:Surface,
  {ad399fa8-04ae-44af-b9f7-1f7a12d6cddc}, !- Handle
  Surface 3,                              !- Name
  Wall,                                   !- Surface Type
  ,                                       !- Construction Name
  {f17b50a1-8d4b-41da-8bcd-6ac58fa001ec}, !- Space Name
  Surface,                                !- Outside Boundary Condition
  {46c09390-7b76-4321-9633-d4fc728ac406}, !- Outside Boundary Condition Object
  NoSun,                                  !- Sun Exposure
  NoWind,                                 !- Wind Exposure
  ,                                       !- View Factor to Ground
  ,                                       !- Number of Vertices
  0, 4.572, 3.9624,                       !- X,Y,Z Vertex 1 {m}
  0, 4.572, 0,                            !- X,Y,Z Vertex 2 {m}
  -12.192, 4.572, 0,                      !- X,Y,Z Vertex 3 {m}
  -12.192, 4.572, 3.9624;                 !- X,Y,Z Vertex 4 {m}

OS:Surface,
  {3149f6d7-6532-4034-b414-0c1723cf18e1}, !- Handle
  Surface 4,                              !- Name
  Wall,                                   !- Surface Type
  ,                                       !- Construction Name
  {f17b50a1-8d4b-41da-8bcd-6ac58fa001ec}, !- Space Name
  Outdoors,                               !- Outside Boundary Condition
  ,                                       !- Outside Boundary Condition Object
  SunExposed,                             !- Sun Exposure
  WindExposed,                            !- Wind Exposure
  ,                                       !- View Factor to Ground
  ,                                       !- Number of Vertices
  0, 0, 3.9624,                           !- X,Y,Z Vertex 1 {m}
  0, 0, 0,                                !- X,Y,Z Vertex 2 {m}
  0, 4.572, 0,                            !- X,Y,Z Vertex 3 {m}
  0, 4.572, 3.9624;                       !- X,Y,Z Vertex 4 {m}

OS:Surface,
  {6f7dc5de-859d-4057-9c8d-8cf23835bf6f}, !- Handle
  Surface 5,                              !- Name
  Wall,                                   !- Surface Type
  ,                                       !- Construction Name
  {f17b50a1-8d4b-41da-8bcd-6ac58fa001ec}, !- Space Name
  Outdoors,                               !- Outside Boundary Condition
  ,                                       !- Outside Boundary Condition Object
  SunExposed,                             !- Sun Exposure
  WindExposed,                            !- Wind Exposure
  ,                                       !- View Factor to Ground
  ,                                       !- Number of Vertices
  -12.192, 0, 3.9624,                     !- X,Y,Z Vertex 1 {m}
  -12.192, 0, 0,                          !- X,Y,Z Vertex 2 {m}
  0, 0, 0,                                !- X,Y,Z Vertex 3 {m}
  0, 0, 3.9624;                           !- X,Y,Z Vertex 4 {m}

OS:Surface,
  {91bb6d91-7a7f-4dec-8198-5a5ce7844900}, !- Handle
  Surface 6,                              !- Name
  RoofCeiling,                            !- Surface Type
  ,                                       !- Construction Name
  {f17b50a1-8d4b-41da-8bcd-6ac58fa001ec}, !- Space Name
  Outdoors,                               !- Outside Boundary Condition
  ,                                       !- Outside Boundary Condition Object
  SunExposed,                             !- Sun Exposure
  WindExposed,                            !- Wind Exposure
  ,                                       !- View Factor to Ground
  ,                                       !- Number of Vertices
  0, 0, 3.9624,                           !- X,Y,Z Vertex 1 {m}
  0, 4.572, 3.9624,                       !- X,Y,Z Vertex 2 {m}
  -12.192, 4.572, 3.9624,                 !- X,Y,Z Vertex 3 {m}
  -12.192, 0, 3.9624;                     !- X,Y,Z Vertex 4 {m}

OS:Space,
  {d20a05c8-a02c-47b1-b675-7255f314399e}, !- Handle
  sp-3-Space,                             !- Name
  ,                                       !- Space Type Name
  ,                                       !- Default Construction Set Name
  ,                                       !- Default Schedule Set Name
  ,                                       !- Direction of Relative North {deg}
  ,                                       !- X Origin {m}
  ,                                       !- Y Origin {m}
  ,                                       !- Z Origin {m}
  {3853f857-8a16-481a-93bb-3732983c39c8}, !- Building Story Name
  {631ba136-4c8a-4cf2-b507-7a36c2a2d64f}; !- Thermal Zone Name

OS:Surface,
  {601e0b1a-379a-4095-b464-45b91a309961}, !- Handle
  Surface 7,                              !- Name
  Floor,                                  !- Surface Type
  ,                                       !- Construction Name
  {d20a05c8-a02c-47b1-b675-7255f314399e}, !- Space Name
  Ground,                                 !- Outside Boundary Condition
  ,                                       !- Outside Boundary Condition Object
  NoSun,                                  !- Sun Exposure
  NoWind,                                 !- Wind Exposure
  ,                                       !- View Factor to Ground
  ,                                       !- Number of Vertices
  -12.192, 4.572, 0,                      !- X,Y,Z Vertex 1 {m}
  -12.192, 15.24, 0,                      !- X,Y,Z Vertex 2 {m}
  0, 15.24, 0,                            !- X,Y,Z Vertex 3 {m}
  0, 4.572, 0;                            !- X,Y,Z Vertex 4 {m}

OS:Surface,
  {4e689b81-5712-4cdd-a241-e4bd550f7343}, !- Handle
  Surface 8,                              !- Name
  Wall,                                   !- Surface Type
  ,                                       !- Construction Name
  {d20a05c8-a02c-47b1-b675-7255f314399e}, !- Space Name
  Outdoors,                               !- Outside Boundary Condition
  ,                                       !- Outside Boundary Condition Object
  SunExposed,                             !- Sun Exposure
  WindExposed,                            !- Wind Exposure
  ,                                       !- View Factor to Ground
  ,                                       !- Number of Vertices
  -12.192, 15.24, 3.9624,                 !- X,Y,Z Vertex 1 {m}
  -12.192, 15.24, 0,                      !- X,Y,Z Vertex 2 {m}
  -12.192, 4.572, 0,                      !- X,Y,Z Vertex 3 {m}
  -12.192, 4.572, 3.9624;                 !- X,Y,Z Vertex 4 {m}

OS:Surface,
  {e51bfb8e-8b4d-4aec-a112-a8e77c58e847}, !- Handle
  Surface 9,                              !- Name
  Wall,                                   !- Surface Type
  ,                                       !- Construction Name
  {d20a05c8-a02c-47b1-b675-7255f314399e}, !- Space Name
  Outdoors,                               !- Outside Boundary Condition
  ,                                       !- Outside Boundary Condition Object
  SunExposed,                             !- Sun Exposure
  WindExposed,                            !- Wind Exposure
  ,                                       !- View Factor to Ground
  ,                                       !- Number of Vertices
  0, 15.24, 3.9624,                       !- X,Y,Z Vertex 1 {m}
  0, 15.24, 0,                            !- X,Y,Z Vertex 2 {m}
  -12.192, 15.24, 0,                      !- X,Y,Z Vertex 3 {m}
  -12.192, 15.24, 3.9624;                 !- X,Y,Z Vertex 4 {m}

OS:Surface,
  {85dea219-1d38-4a39-a00a-c64642977ab4}, !- Handle
  Surface 10,                             !- Name
  Wall,                                   !- Surface Type
  ,                                       !- Construction Name
  {d20a05c8-a02c-47b1-b675-7255f314399e}, !- Space Name
  Outdoors,                               !- Outside Boundary Condition
  ,                                       !- Outside Boundary Condition Object
  SunExposed,                             !- Sun Exposure
  WindExposed,                            !- Wind Exposure
  ,                                       !- View Factor to Ground
  ,                                       !- Number of Vertices
  0, 4.572, 3.9624,                       !- X,Y,Z Vertex 1 {m}
  0, 4.572, 0,                            !- X,Y,Z Vertex 2 {m}
  0, 15.24, 0,                            !- X,Y,Z Vertex 3 {m}
  0, 15.24, 3.9624;                       !- X,Y,Z Vertex 4 {m}

OS:Surface,
  {46c09390-7b76-4321-9633-d4fc728ac406}, !- Handle
  Surface 11,                             !- Name
  Wall,                                   !- Surface Type
  ,                                       !- Construction Name
  {d20a05c8-a02c-47b1-b675-7255f314399e}, !- Space Name
  Surface,                                !- Outside Boundary Condition
  {ad399fa8-04ae-44af-b9f7-1f7a12d6cddc}, !- Outside Boundary Condition Object
  NoSun,                                  !- Sun Exposure
  NoWind,                                 !- Wind Exposure
  ,                                       !- View Factor to Ground
  ,                                       !- Number of Vertices
  -12.192, 4.572, 3.9624,                 !- X,Y,Z Vertex 1 {m}
  -12.192, 4.572, 0,                      !- X,Y,Z Vertex 2 {m}
  0, 4.572, 0,                            !- X,Y,Z Vertex 3 {m}
  0, 4.572, 3.9624;                       !- X,Y,Z Vertex 4 {m}

OS:Surface,
  {7f124887-97a3-4b21-9dfa-dac798266edc}, !- Handle
  Surface 12,                             !- Name
  RoofCeiling,                            !- Surface Type
  ,                                       !- Construction Name
  {d20a05c8-a02c-47b1-b675-7255f314399e}, !- Space Name
  Outdoors,                               !- Outside Boundary Condition
  ,                                       !- Outside Boundary Condition Object
  SunExposed,                             !- Sun Exposure
  WindExposed,                            !- Wind Exposure
  ,                                       !- View Factor to Ground
  ,                                       !- Number of Vertices
  0, 4.572, 3.9624,                       !- X,Y,Z Vertex 1 {m}
  0, 10.668, 3.9624,                      !- X,Y,Z Vertex 2 {m}
  -12.192, 10.668, 3.9624,                !- X,Y,Z Vertex 3 {m}
  -12.192, 4.572, 3.9624;                 !- X,Y,Z Vertex 4 {m}

OS:Space,
  {d0b9be6d-f831-455e-9cdd-f89802989f37}, !- Handle
  sp-4-Space,                             !- Name
  ,                                       !- Space Type Name
  ,                                       !- Default Construction Set Name
  ,                                       !- Default Schedule Set Name
  ,                                       !- Direction of Relative North {deg}
  ,                                       !- X Origin {m}
  ,                                       !- Y Origin {m}
  ,                                       !- Z Origin {m}
  {3853f857-8a16-481a-93bb-3732983c39c8}, !- Building Story Name
  {8a8f6617-2117-46fb-9522-bb3796a6b2ac}; !- Thermal Zone Name

OS:Surface,
  {779cb514-4f2a-4820-8b6b-c4873ce6cb69}, !- Handle
  Surface 13,                             !- Name
  Floor,                                  !- Surface Type
  ,                                       !- Construction Name
  {d0b9be6d-f831-455e-9cdd-f89802989f37}, !- Space Name
  Ground,                                 !- Outside Boundary Condition
  ,                                       !- Outside Boundary Condition Object
  NoSun,                                  !- Sun Exposure
  NoWind,                                 !- Wind Exposure
  ,                                       !- View Factor to Ground
  ,                                       !- Number of Vertices
  0, 0, 0,                                !- X,Y,Z Vertex 1 {m}
  0, 15.24, 0,                            !- X,Y,Z Vertex 2 {m}
  15.24, 15.24, 0,                        !- X,Y,Z Vertex 3 {m}
  15.24, 0, 0;                            !- X,Y,Z Vertex 4 {m}

OS:Surface,
  {5f47d67b-651a-4995-bdba-1021f0b1a863}, !- Handle
  Surface 14,                             !- Name
  Wall,                                   !- Surface Type
  ,                                       !- Construction Name
  {d0b9be6d-f831-455e-9cdd-f89802989f37}, !- Space Name
  Outdoors,                               !- Outside Boundary Condition
  ,                                       !- Outside Boundary Condition Object
  SunExposed,                             !- Sun Exposure
  WindExposed,                            !- Wind Exposure
  ,                                       !- View Factor to Ground
  ,                                       !- Number of Vertices
  0, 15.24, 3.9624,                       !- X,Y,Z Vertex 1 {m}
  0, 15.24, 0,                            !- X,Y,Z Vertex 2 {m}
  0, 4.572, 0,                            !- X,Y,Z Vertex 3 {m}
  0, 4.572, 3.9624;                       !- X,Y,Z Vertex 4 {m}

OS:Surface,
  {9d97341a-6659-4bfd-b538-9e9ea5c31772}, !- Handle
  Surface 15,                             !- Name
  Wall,                                   !- Surface Type
  ,                                       !- Construction Name
  {d0b9be6d-f831-455e-9cdd-f89802989f37}, !- Space Name
  Outdoors,                               !- Outside Boundary Condition
  ,                                       !- Outside Boundary Condition Object
  SunExposed,                             !- Sun Exposure
  WindExposed,                            !- Wind Exposure
  ,                                       !- View Factor to Ground
  ,                                       !- Number of Vertices
  15.24, 15.24, 7.9248,                   !- X,Y,Z Vertex 1 {m}
  15.24, 15.24, 0,                        !- X,Y,Z Vertex 2 {m}
  0, 15.24, 0,                            !- X,Y,Z Vertex 3 {m}
  0, 15.24, 7.9248;                       !- X,Y,Z Vertex 4 {m}

OS:Surface,
  {cf524deb-374a-4bac-af65-9ca5018c9df8}, !- Handle
  Surface 16,                             !- Name
  Wall,                                   !- Surface Type
  ,                                       !- Construction Name
  {d0b9be6d-f831-455e-9cdd-f89802989f37}, !- Space Name
  Outdoors,                               !- Outside Boundary Condition
  ,                                       !- Outside Boundary Condition Object
  SunExposed,                             !- Sun Exposure
  WindExposed,                            !- Wind Exposure
  ,                                       !- View Factor to Ground
  ,                                       !- Number of Vertices
  15.24, 0, 7.9248,                       !- X,Y,Z Vertex 1 {m}
  15.24, 0, 0,                            !- X,Y,Z Vertex 2 {m}
  15.24, 15.24, 0,                        !- X,Y,Z Vertex 3 {m}
  15.24, 15.24, 7.9248;                   !- X,Y,Z Vertex 4 {m}

OS:Surface,
  {d7cc057d-c8c3-47a7-856b-b194f8933cd2}, !- Handle
  Surface 17,                             !- Name
  Wall,                                   !- Surface Type
  ,                                       !- Construction Name
  {d0b9be6d-f831-455e-9cdd-f89802989f37}, !- Space Name
  Outdoors,                               !- Outside Boundary Condition
  ,                                       !- Outside Boundary Condition Object
  SunExposed,                             !- Sun Exposure
  WindExposed,                            !- Wind Exposure
  ,                                       !- View Factor to Ground
  ,                                       !- Number of Vertices
  0, 0, 7.9248,                           !- X,Y,Z Vertex 1 {m}
  0, 0, 0,                                !- X,Y,Z Vertex 2 {m}
  15.24, 0, 0,                            !- X,Y,Z Vertex 3 {m}
  15.24, 0, 7.9248;                       !- X,Y,Z Vertex 4 {m}

OS:Surface,
  {d6ba1614-ec84-47a1-911d-4341f89cc998}, !- Handle
  Surface 18,                             !- Name
  RoofCeiling,                            !- Surface Type
  ,                                       !- Construction Name
  {d0b9be6d-f831-455e-9cdd-f89802989f37}, !- Space Name
  Outdoors,                               !- Outside Boundary Condition
  ,                                       !- Outside Boundary Condition Object
  SunExposed,                             !- Sun Exposure
  WindExposed,                            !- Wind Exposure
  ,                                       !- View Factor to Ground
  ,                                       !- Number of Vertices
  15.24, 0, 7.9248,                       !- X,Y,Z Vertex 1 {m}
  15.24, 15.24, 7.9248,                   !- X,Y,Z Vertex 2 {m}
  0, 15.24, 7.9248,                       !- X,Y,Z Vertex 3 {m}
  0, 0, 7.9248;                           !- X,Y,Z Vertex 4 {m}

OS:Space,
  {d7cd8ffa-2937-4043-9039-7f15a3dffb73}, !- Handle
  sp-5-Space,                             !- Name
  ,                                       !- Space Type Name
  ,                                       !- Default Construction Set Name
  ,                                       !- Default Schedule Set Name
  ,                                       !- Direction of Relative North {deg}
  ,                                       !- X Origin {m}
  ,                                       !- Y Origin {m}
  ,                                       !- Z Origin {m}
  {232bf6da-bb59-4bd3-aa43-65dd93243208}, !- Building Story Name
  {628c751c-cbd3-4ae5-ac6d-75653aa9338d}; !- Thermal Zone Name

OS:Surface,
  {5062cf6f-544f-48c3-9ddb-b7270c327894}, !- Handle
  Surface 19,                             !- Name
  Floor,                                  !- Surface Type
  ,                                       !- Construction Name
  {d7cd8ffa-2937-4043-9039-7f15a3dffb73}, !- Space Name
  Ground,                                 !- Outside Boundary Condition
  ,                                       !- Outside Boundary Condition Object
  NoSun,                                  !- Sun Exposure
  NoWind,                                 !- Wind Exposure
  ,                                       !- View Factor to Ground
  ,                                       !- Number of Vertices
  0, 10.668, 3.9624,                      !- X,Y,Z Vertex 1 {m}
  0, 4.572, 3.9624,                       !- X,Y,Z Vertex 2 {m}
  -12.192, 4.572, 3.9624,                 !- X,Y,Z Vertex 3 {m}
  -12.192, 10.668, 3.9624;                !- X,Y,Z Vertex 4 {m}

OS:Surface,
  {07e5cbe9-b57e-4a49-a43f-34c044166384}, !- Handle
  Surface 20,                             !- Name
  Wall,                                   !- Surface Type
  ,                                       !- Construction Name
  {d7cd8ffa-2937-4043-9039-7f15a3dffb73}, !- Space Name
  Outdoors,                               !- Outside Boundary Condition
  ,                                       !- Outside Boundary Condition Object
  SunExposed,                             !- Sun Exposure
  WindExposed,                            !- Wind Exposure
  ,                                       !- View Factor to Ground
  ,                                       !- Number of Vertices
  -12.192, 10.668, 7.9248,                !- X,Y,Z Vertex 1 {m}
  -12.192, 10.668, 3.9624,                !- X,Y,Z Vertex 2 {m}
  -12.192, 0, 3.9624,                     !- X,Y,Z Vertex 3 {m}
  -12.192, 0, 7.9248;                     !- X,Y,Z Vertex 4 {m}

OS:Surface,
  {4a846468-97c0-4253-b9fb-3b488b1df742}, !- Handle
  Surface 21,                             !- Name
  Wall,                                   !- Surface Type
  ,                                       !- Construction Name
  {d7cd8ffa-2937-4043-9039-7f15a3dffb73}, !- Space Name
  Surface,                                !- Outside Boundary Condition
  {19adca64-6e78-41ad-8047-d3f66a0905b2}, !- Outside Boundary Condition Object
  NoSun,                                  !- Sun Exposure
  NoWind,                                 !- Wind Exposure
  ,                                       !- View Factor to Ground
  ,                                       !- Number of Vertices
  0, 10.668, 7.9248,                      !- X,Y,Z Vertex 1 {m}
  0, 10.668, 3.9624,                      !- X,Y,Z Vertex 2 {m}
  -12.192, 10.668, 3.9624,                !- X,Y,Z Vertex 3 {m}
  -12.192, 10.668, 7.9248;                !- X,Y,Z Vertex 4 {m}

OS:Surface,
  {6273ddb7-f506-4b32-9991-4eb3e4ef7435}, !- Handle
  Surface 22,                             !- Name
  Wall,                                   !- Surface Type
  ,                                       !- Construction Name
  {d7cd8ffa-2937-4043-9039-7f15a3dffb73}, !- Space Name
  Outdoors,                               !- Outside Boundary Condition
  ,                                       !- Outside Boundary Condition Object
  SunExposed,                             !- Sun Exposure
  WindExposed,                            !- Wind Exposure
  ,                                       !- View Factor to Ground
  ,                                       !- Number of Vertices
  0, 0, 7.9248,                           !- X,Y,Z Vertex 1 {m}
  0, 0, 3.9624,                           !- X,Y,Z Vertex 2 {m}
  0, 10.668, 3.9624,                      !- X,Y,Z Vertex 3 {m}
  0, 10.668, 7.9248;                      !- X,Y,Z Vertex 4 {m}

OS:Surface,
  {8b1ab099-414e-4bc7-9790-27b42822e8d3}, !- Handle
  Surface 23,                             !- Name
  Wall,                                   !- Surface Type
  ,                                       !- Construction Name
  {d7cd8ffa-2937-4043-9039-7f15a3dffb73}, !- Space Name
  Outdoors,                               !- Outside Boundary Condition
  ,                                       !- Outside Boundary Condition Object
  SunExposed,                             !- Sun Exposure
  WindExposed,                            !- Wind Exposure
  ,                                       !- View Factor to Ground
  ,                                       !- Number of Vertices
  -12.192, 0, 7.9248,                     !- X,Y,Z Vertex 1 {m}
  -12.192, 0, 3.9624,                     !- X,Y,Z Vertex 2 {m}
  0, 0, 3.9624,                           !- X,Y,Z Vertex 3 {m}
  0, 0, 7.9248;                           !- X,Y,Z Vertex 4 {m}

OS:Surface,
  {c4fbd2d3-0ee6-4cfc-83ea-e067171a6859}, !- Handle
  Surface 24,                             !- Name
  RoofCeiling,                            !- Surface Type
  ,                                       !- Construction Name
  {d7cd8ffa-2937-4043-9039-7f15a3dffb73}, !- Space Name
  Outdoors,                               !- Outside Boundary Condition
  ,                                       !- Outside Boundary Condition Object
  SunExposed,                             !- Sun Exposure
  WindExposed,                            !- Wind Exposure
  ,                                       !- View Factor to Ground
  ,                                       !- Number of Vertices
  0, 0, 7.9248,                           !- X,Y,Z Vertex 1 {m}
  0, 10.668, 7.9248,                      !- X,Y,Z Vertex 2 {m}
  -12.192, 10.668, 7.9248,                !- X,Y,Z Vertex 3 {m}
  -12.192, 0, 7.9248;                     !- X,Y,Z Vertex 4 {m}

OS:Space,
  {f5ee43b4-1be6-4bd6-b0fe-4f5acd6d3d1a}, !- Handle
  sp-6-Space,                             !- Name
  ,                                       !- Space Type Name
  ,                                       !- Default Construction Set Name
  ,                                       !- Default Schedule Set Name
  ,                                       !- Direction of Relative North {deg}
  ,                                       !- X Origin {m}
  ,                                       !- Y Origin {m}
  ,                                       !- Z Origin {m}
  {232bf6da-bb59-4bd3-aa43-65dd93243208}, !- Building Story Name
  {99a5bd97-8b6d-4290-81bf-8405a36a1c4f}; !- Thermal Zone Name

OS:Surface,
  {770513f2-f383-43f8-994b-10f30aa1b9c9}, !- Handle
  Surface 25,                             !- Name
  Floor,                                  !- Surface Type
  ,                                       !- Construction Name
  {f5ee43b4-1be6-4bd6-b0fe-4f5acd6d3d1a}, !- Space Name
  Ground,                                 !- Outside Boundary Condition
  ,                                       !- Outside Boundary Condition Object
  NoSun,                                  !- Sun Exposure
  NoWind,                                 !- Wind Exposure
  ,                                       !- View Factor to Ground
  ,                                       !- Number of Vertices
  -12.192, 10.668, 3.9624,                !- X,Y,Z Vertex 1 {m}
  -12.192, 15.24, 3.9624,                 !- X,Y,Z Vertex 2 {m}
  0, 15.24, 3.9624,                       !- X,Y,Z Vertex 3 {m}
  0, 10.668, 3.9624;                      !- X,Y,Z Vertex 4 {m}

OS:Surface,
  {6c11fcbb-2523-481d-b76b-4782e7f153e5}, !- Handle
  Surface 26,                             !- Name
  Wall,                                   !- Surface Type
  ,                                       !- Construction Name
  {f5ee43b4-1be6-4bd6-b0fe-4f5acd6d3d1a}, !- Space Name
  Outdoors,                               !- Outside Boundary Condition
  ,                                       !- Outside Boundary Condition Object
  SunExposed,                             !- Sun Exposure
  WindExposed,                            !- Wind Exposure
  ,                                       !- View Factor to Ground