
OS:Version,
  {75116f87-ca26-4a8e-a343-629787688be7}, !- Handle
  1.12.2;                                 !- Version Identifier

OS:SpaceType,
  {3a7de6a7-17a7-4af9-b068-4bb7495c0c6f}, !- Handle
  189.1-2009 - Office - Lobby - CZ4-8,    !- Name
  ,                                       !- Default Construction Set Name
  {3a3dafed-b454-4a62-b69b-89e5f9f58fdc}, !- Default Schedule Set Name
  {a1ed5a18-1552-4ebf-b407-310e716ea8b9}, !- Group Rendering Name
  {9af0b374-6f57-49c8-91b9-2621d17248eb}, !- Design Specification Outdoor Air Object Name
  Office,                                 !- Standards Building Type
  Lobby;                                  !- Standards Space Type

OS:DefaultScheduleSet,
  {3a3dafed-b454-4a62-b69b-89e5f9f58fdc}, !- Handle
  189.1-2009 - Office - Lobby - CZ4-8 Schedule Set, !- Name
  ,                                       !- Hours of Operation Schedule Name
  {db0c1dad-8733-4877-910f-20bff2f7d47d}, !- Number of People Schedule Name
  {46714463-20ad-49d6-878b-310d0586bda6}, !- People Activity Level Schedule Name
  {92d88822-a40b-40e0-9e7c-5ce018d04843}, !- Lighting Schedule Name
  {fe6d95e5-751d-43b3-ac1d-1291b8c00e1c}, !- Electric Equipment Schedule Name
  ,                                       !- Gas Equipment Schedule Name
  ,                                       !- Hot Water Equipment Schedule Name
  {e28ae450-cf94-43f1-8854-9f6b79070499}, !- Infiltration Schedule Name
  ,                                       !- Steam Equipment Schedule Name
  ;                                       !- Other Equipment Schedule Name

OS:Rendering:Color,
  {a1ed5a18-1552-4ebf-b407-310e716ea8b9}, !- Handle
  Rendering Color 23,                     !- Name
  230,                                    !- Rendering Red Value
  157,                                    !- Rendering Green Value
  120;                                    !- Rendering Blue Value

OS:DesignSpecification:OutdoorAir,
  {9af0b374-6f57-49c8-91b9-2621d17248eb}, !- Handle
  189.1-2009 - Office - Lobby - CZ4-8 Ventilation, !- Name
  Sum,                                    !- Outdoor Air Method
  0.007079211648,                         !- Outdoor Air Flow per Person {m3/s-person}
  ,                                       !- Outdoor Air Flow per Floor Area {m3/s-m2}
  ,                                       !- Outdoor Air Flow Rate {m3/s}
  ,                                       !- Outdoor Air Flow Air Changes per Hour {1/hr}
  ;                                       !- Outdoor Air Flow Rate Fraction Schedule Name

OS:Schedule:Ruleset,
  {db0c1dad-8733-4877-910f-20bff2f7d47d}, ! Handle
  Office Misc Occ,                        ! Name
  {dfb97e4e-9513-4136-994b-abf128d80698}, ! Schedule Type Limits Name
  {f3d04c82-2e9a-42d3-8859-3496bc5ccca9}, ! Default Day Schedule Name
  {a02abf6c-d9a9-4cfb-8629-fe7985ca0d83}, ! Summer Design Day Schedule Name
  {62571eeb-beca-4b25-923a-d12dfceeeeb7}; ! Winter Design Day Schedule Name

OS:Schedule:Day,
  {f3d04c82-2e9a-42d3-8859-3496bc5ccca9}, ! Handle
  Office Bldg Occ Default Schedule 1,     ! Name
  {dfb97e4e-9513-4136-994b-abf128d80698}, ! Schedule Type Limits Name
  ,                                       ! Interpolate to Timestep
  6,                                      !- Hour 1
  0,                                      !- Minute 1
  0,                                      !- Value Until Time 1
  7,                                      !- Hour 2
  0,                                      !- Minute 2
  0.100000001490116,                      !- Value Until Time 2
  8,                                      !- Hour 3
  0,                                      !- Minute 3
  0.200000002980232,                      !- Value Until Time 3
  20,                                     !- Hour 4
  0,                                      !- Minute 4
  0.400000005960464,                      !- Value Until Time 4
  22,                                     !- Hour 5
  0,                                      !- Minute 5
  0.100000001490116,                      !- Value Until Time 5
  24,                                     !- Hour 6
  0,                                      !- Minute 6
  0.0500000007450581;                     !- Value Until Time 6

OS:Schedule:Day,
  {a02abf6c-d9a9-4cfb-8629-fe7985ca0d83}, ! Handle
  Office Bldg Occ Summer Design Day 1,    ! Name
  {dfb97e4e-9513-4136-994b-abf128d80698}, ! Schedule Type Limits Name
  ,                                       ! Interpolate to Timestep
  6,                                      ! Hour 1
  0,                                      ! Minute 1
  0,                                      ! Value Until Time 1
  22,                                     ! Hour 2
  0,                                      ! Minute 2
  1,                                      ! Value Until Time 2
  24,                                     ! Hour 3
  0,                                      ! Minute 3
  0.050000000000000003;                   ! Value Until Time 3

OS:Schedule:Day,
  {62571eeb-beca-4b25-923a-d12dfceeeeb7}, ! Handle
  Office Bldg Occ Winter Design Day 1,    ! Name
  {dfb97e4e-9513-4136-994b-abf128d80698}, ! Schedule Type Limits Name
  ,                                       ! Interpolate to Timestep
  24,                                     ! Hour 1
  0,                                      ! Minute 1
  0;                                      ! Value Until Time 1

OS:Schedule:Rule,
  {91f172ac-8cde-40c2-8890-f6381fd3aadd}, ! Handle
  Office Misc Occ Rule 1,                 ! Name
  {db0c1dad-8733-4877-910f-20bff2f7d47d}, ! Schedule Ruleset Name
  0,                                      ! Rule Order
  {d47df16b-8cb6-45ae-836d-0f5c6bce3490}, ! Day Schedule Name
  Yes,                                    ! Apply Sunday
  No,                                     ! Apply Monday
  No,                                     ! Apply Tuesday
  No,                                     ! Apply Wednesday
  No,                                     ! Apply Thursday
  No,                                     ! Apply Friday
  No,                                     ! Apply Saturday
  ,                                       ! Apply Holiday
  DateRange,                              ! Date Specification Type
  1,                                      ! Start Month
  1,                                      ! Start Day
  12,                                     ! End Month
  31;                                     ! End Day

OS:Schedule:Rule,
  {05e4457b-90f8-4508-9029-5b59d8d89679}, ! Handle
  Office Misc Occ Rule 2,                 ! Name
  {db0c1dad-8733-4877-910f-20bff2f7d47d}, ! Schedule Ruleset Name
  1,                                      ! Rule Order
  {06922e36-440f-43f7-a601-dfa114bb4553}, ! Day Schedule Name
  No,                                     ! Apply Sunday
  No,                                     ! Apply Monday
  No,                                     ! Apply Tuesday
  No,                                     ! Apply Wednesday
  No,                                     ! Apply Thursday
  No,                                     ! Apply Friday
  Yes,                                    ! Apply Saturday
  ,                                       ! Apply Holiday
  DateRange,                              ! Date Specification Type
  1,                                      ! Start Month
  1,                                      ! Start Day
  12,                                     ! End Month
  31;                                     ! End Day

OS:Schedule:Day,
  {d47df16b-8cb6-45ae-836d-0f5c6bce3490}, ! Handle
  Office Bldg Occ Rule 1 Day Schedule 1,  ! Name
  {dfb97e4e-9513-4136-994b-abf128d80698}, ! Schedule Type Limits Name
  ,                                       ! Interpolate to Timestep
  24,                                     ! Hour 1
  0,                                      ! Minute 1
  0;                                      ! Value Until Time 1

OS:Schedule:Day,
  {06922e36-440f-43f7-a601-dfa114bb4553}, ! Handle
  Office Bldg Occ Rule 2 Day Schedule 1,  ! Name
  {dfb97e4e-9513-4136-994b-abf128d80698}, ! Schedule Type Limits Name
  ,                                       ! Interpolate to Timestep
  6,                                      !- Hour 1
  0,                                      !- Minute 1
  0,                                      !- Value Until Time 1
  8,                                      !- Hour 2
  0,                                      !- Minute 2
  0.100000001490116,                      !- Value Until Time 2
  14,                                     !- Hour 3
  0,                                      !- Minute 3
  0.25,                                   !- Value Until Time 3
  17,                                     !- Hour 4
  0,                                      !- Minute 4
  0.100000001490116,                      !- Value Until Time 4
  24,                                     !- Hour 5
  0,                                      !- Minute 5
  0;                                      !- Value Until Time 5

OS:Schedule:Ruleset,
  {46714463-20ad-49d6-878b-310d0586bda6}, ! Handle
  Office Activity,                        ! Name
  {75ebdd09-d094-4571-a2b8-ee1d68bd7333}, ! Schedule Type Limits Name
  {83436e96-472f-4f50-a024-3e99977ef20d}, ! Default Day Schedule Name
  {16853874-4ed1-4413-b94f-974dbb9fce90}, ! Summer Design Day Schedule Name
  {5eda6458-a9db-4a90-9586-7864681f8720}; ! Winter Design Day Schedule Name

OS:Schedule:Day,
  {83436e96-472f-4f50-a024-3e99977ef20d}, ! Handle
  Office Activity Default Schedule,       ! Name
  {75ebdd09-d094-4571-a2b8-ee1d68bd7333}, ! Schedule Type Limits Name
  ,                                       ! Interpolate to Timestep
  24,                                     !- Hour 1
  0,                                      !- Minute 1
  132;                                    !- Value Until Time 1

OS:Schedule:Day,
  {16853874-4ed1-4413-b94f-974dbb9fce90}, ! Handle
  Office Activity Summer Design Day,      ! Name
  {75ebdd09-d094-4571-a2b8-ee1d68bd7333}, ! Schedule Type Limits Name
  ,                                       ! Interpolate to Timestep
  24,                                     !- Hour 1
  0,                                      !- Minute 1
  132;                                    !- Value Until Time 1

OS:Schedule:Day,
  {5eda6458-a9db-4a90-9586-7864681f8720}, ! Handle
  Office Activity Winter Design Day,      ! Name
  {75ebdd09-d094-4571-a2b8-ee1d68bd7333}, ! Schedule Type Limits Name
  ,                                       ! Interpolate to Timestep
  24,                                     !- Hour 1
  0,                                      !- Minute 1
  132;                                    !- Value Until Time 1

OS:Schedule:Ruleset,
  {92d88822-a40b-40e0-9e7c-5ce018d04843}, ! Handle
  Office Bldg Light,                      ! Name
  {dfb97e4e-9513-4136-994b-abf128d80698}, ! Schedule Type Limits Name
  {304f1c28-28be-4cbc-b69a-bdab5eed47cb}, ! Default Day Schedule Name
  {0249ecef-954d-40db-8004-1ada5c5fa6c0}, ! Summer Design Day Schedule Name
  {11428e12-6190-4ad4-80c4-ddd28720e44b}; ! Winter Design Day Schedule Name

OS:Schedule:Day,
  {304f1c28-28be-4cbc-b69a-bdab5eed47cb}, ! Handle
  Office Bldg Light Default Schedule,     ! Name
  {dfb97e4e-9513-4136-994b-abf128d80698}, ! Schedule Type Limits Name
  ,                                       ! Interpolate to Timestep
  5,                                      !- Hour 1
  0,                                      !- Minute 1
  0.05,                                   !- Value Until Time 1
  7,                                      !- Hour 2
  0,                                      !- Minute 2
  0.1,                                    !- Value Until Time 2
  8,                                      !- Hour 3
  0,                                      !- Minute 3
  0.3,                                    !- Value Until Time 3
  17,                                     !- Hour 4
  0,                                      !- Minute 4
  0.9,                                    !- Value Until Time 4
  18,                                     !- Hour 5
  0,                                      !- Minute 5
  0.7,                                    !- Value Until Time 5
  20,                                     !- Hour 6
  0,                                      !- Minute 6
  0.5,                                    !- Value Until Time 6
  22,                                     !- Hour 7
  0,                                      !- Minute 7
  0.3,                                    !- Value Until Time 7
  23,                                     !- Hour 8
  0,                                      !- Minute 8
  0.1,                                    !- Value Until Time 8
  24,                                     !- Hour 9
  0,                                      !- Minute 9
  0.05;                                   !- Value Until Time 9

OS:Schedule:Day,
  {0249ecef-954d-40db-8004-1ada5c5fa6c0}, ! Handle
  Office Bldg Light Summer Design Day,    ! Name
  {dfb97e4e-9513-4136-994b-abf128d80698}, ! Schedule Type Limits Name
  ,                                       ! Interpolate to Timestep
  24,                                     ! Hour 1
  0,                                      ! Minute 1
  1;                                      ! Value Until Time 1

OS:Schedule:Day,
  {11428e12-6190-4ad4-80c4-ddd28720e44b}, ! Handle
  Office Bldg Light Winter Design Day,    ! Name
  {dfb97e4e-9513-4136-994b-abf128d80698}, ! Schedule Type Limits Name
  ,                                       ! Interpolate to Timestep
  24,                                     ! Hour 1
  0,                                      ! Minute 1
  0;                                      ! Value Until Time 1

OS:Schedule:Rule,
  {b7943132-4357-4eea-a13b-d22a87fa1513}, ! Handle
  Office Bldg Light Rule 1,               ! Name
  {92d88822-a40b-40e0-9e7c-5ce018d04843}, ! Schedule Ruleset Name
  0,                                      ! Rule Order
  {66216746-01c1-4043-92bc-1d7ccee8a806}, ! Day Schedule Name
  Yes,                                    ! Apply Sunday
  No,                                     ! Apply Monday
  No,                                     ! Apply Tuesday
  No,                                     ! Apply Wednesday
  No,                                     ! Apply Thursday
  No,                                     ! Apply Friday
  No,                                     ! Apply Saturday
  ,                                       ! Apply Holiday
  DateRange,                              ! Date Specification Type
  1,                                      ! Start Month
  1,                                      ! Start Day
  12,                                     ! End Month
  31;                                     ! End Day

OS:Schedule:Rule,
  {3c586ee2-cd5f-4991-977a-46a101875598}, ! Handle
  Office Bldg Light Rule 2,               ! Name
  {92d88822-a40b-40e0-9e7c-5ce018d04843}, ! Schedule Ruleset Name
  1,                                      ! Rule Order
  {25502719-de9b-4ba9-b7fb-292c0628c6ec}, ! Day Schedule Name
  No,                                     ! Apply Sunday
  No,                                     ! Apply Monday
  No,                                     ! Apply Tuesday
  No,                                     ! Apply Wednesday
  No,                                     ! Apply Thursday
  No,                                     ! Apply Friday
  Yes,                                    ! Apply Saturday
  ,                                       ! Apply Holiday
  DateRange,                              ! Date Specification Type
  1,                                      ! Start Month
  1,                                      ! Start Day
  12,                                     ! End Month
  31;                                     ! End Day

OS:Schedule:Day,
  {66216746-01c1-4043-92bc-1d7ccee8a806}, ! Handle
  Office Bldg Light Rule 1 Day Schedule,  ! Name
  {dfb97e4e-9513-4136-994b-abf128d80698}, ! Schedule Type Limits Name
  ,                                       ! Interpolate to Timestep
  24,                                     ! Hour 1
  0,                                      ! Minute 1
  0.050000000000000003;                   ! Value Until Time 1

OS:Schedule:Day,
  {25502719-de9b-4ba9-b7fb-292c0628c6ec}, ! Handle
  Office Bldg Light Rule 2 Day Schedule,  ! Name
  {dfb97e4e-9513-4136-994b-abf128d80698}, ! Schedule Type Limits Name
  ,                                       ! Interpolate to Timestep
  6,                                      ! Hour 1
  0,                                      ! Minute 1
  0.050000000000000003,                   ! Value Until Time 1
  8,                                      ! Hour 2
  0,                                      ! Minute 2
  0.10000000000000001,                    ! Value Until Time 2
  14,                                     ! Hour 3
  0,                                      ! Minute 3
  0.5,                                    ! Value Until Time 3
  17,                                     ! Hour 4
  0,                                      ! Minute 4
  0.14999999999999999,                    ! Value Until Time 4
  24,                                     ! Hour 5
  0,                                      ! Minute 5
  0.050000000000000003;                   ! Value Until Time 5

OS:Schedule:Ruleset,
  {fe6d95e5-751d-43b3-ac1d-1291b8c00e1c}, ! Handle
  Office Bldg Equip,                      ! Name
  {dfb97e4e-9513-4136-994b-abf128d80698}, ! Schedule Type Limits Name
  {1e6da16b-11f2-4428-8ac7-90a1ece7a3be}, ! Default Day Schedule Name
  {26f82ece-fb2c-4119-9ae0-df59d157de1d}, ! Summer Design Day Schedule Name
  {b391c990-27b2-46b8-9bd3-328ec22bb041}; ! Winter Design Day Schedule Name

OS:Schedule:Day,
  {1e6da16b-11f2-4428-8ac7-90a1ece7a3be}, ! Handle
  Office Bldg Equip Default Schedule,     ! Name
  {dfb97e4e-9513-4136-994b-abf128d80698}, ! Schedule Type Limits Name
  ,                                       ! Interpolate to Timestep
  8,                                      !- Hour 1
  0,                                      !- Minute 1
  0.4,                                    !- Value Until Time 1
  12,                                     !- Hour 2
  0,                                      !- Minute 2
  0.9,                                    !- Value Until Time 2
  13,                                     !- Hour 3
  0,                                      !- Minute 3
  0.8,                                    !- Value Until Time 3
  17,                                     !- Hour 4
  0,                                      !- Minute 4
  0.9,                                    !- Value Until Time 4
  18,                                     !- Hour 5
  0,                                      !- Minute 5
  0.8,                                    !- Value Until Time 5
  20,                                     !- Hour 6
  0,                                      !- Minute 6
  0.6,                                    !- Value Until Time 6
  22,                                     !- Hour 7
  0,                                      !- Minute 7
  0.5,                                    !- Value Until Time 7
  24,                                     !- Hour 8
  0,                                      !- Minute 8
  0.4;                                    !- Value Until Time 8

OS:Schedule:Day,
  {26f82ece-fb2c-4119-9ae0-df59d157de1d}, ! Handle
  Office Bldg Equip Summer Design Day,    ! Name
  {dfb97e4e-9513-4136-994b-abf128d80698}, ! Schedule Type Limits Name
  ,                                       ! Interpolate to Timestep
  24,                                     ! Hour 1
  0,                                      ! Minute 1
  1;                                      ! Value Until Time 1

OS:Schedule:Day,
  {b391c990-27b2-46b8-9bd3-328ec22bb041}, ! Handle
  Office Bldg Equip Winter Design Day,    ! Name
  {dfb97e4e-9513-4136-994b-abf128d80698}, ! Schedule Type Limits Name
  ,                                       ! Interpolate to Timestep
  24,                                     ! Hour 1
  0,                                      ! Minute 1
  0;                                      ! Value Until Time 1

OS:Schedule:Rule,
  {3a7ff221-f9da-4290-bf79-245342ced2fe}, ! Handle
  Office Bldg Equip Rule 1,               ! Name
  {fe6d95e5-751d-43b3-ac1d-1291b8c00e1c}, ! Schedule Ruleset Name
  0,                                      ! Rule Order
  {7e35bf63-40a8-44c1-a961-b3eebc6fd26c}, ! Day Schedule Name
  Yes,                                    ! Apply Sunday
  No,                                     ! Apply Monday
  No,                                     ! Apply Tuesday
  No,                                     ! Apply Wednesday
  No,                                     ! Apply Thursday
  No,                                     ! Apply Friday
  No,                                     ! Apply Saturday
  ,                                       ! Apply Holiday
  DateRange,                              ! Date Specification Type
  1,                                      ! Start Month
  1,                                      ! Start Day
  12,                                     ! End Month
  31;                                     ! End Day

OS:Schedule:Rule,
  {7b57d8c1-5bde-40ae-b031-b471ed068ac5}, ! Handle
  Office Bldg Equip Rule 2,               ! Name
  {fe6d95e5-751d-43b3-ac1d-1291b8c00e1c}, ! Schedule Ruleset Name
  1,                                      ! Rule Order
  {9151b544-a117-4aa7-86fa-88eabad550fe}, ! Day Schedule Name
  No,                                     ! Apply Sunday
  No,                                     ! Apply Monday
  No,                                     ! Apply Tuesday
  No,                                     ! Apply Wednesday
  No,                                     ! Apply Thursday
  No,                                     ! Apply Friday
  Yes,                                    ! Apply Saturday
  ,                                       ! Apply Holiday
  DateRange,                              ! Date Specification Type
  1,                                      ! Start Month
  1,                                      ! Start Day
  12,                                     ! End Month
  31;                                     ! End Day

OS:Schedule:Day,
  {7e35bf63-40a8-44c1-a961-b3eebc6fd26c}, ! Handle
  Office Bldg Equip Rule 1 Day Schedule,  ! Name
  {dfb97e4e-9513-4136-994b-abf128d80698}, ! Schedule Type Limits Name
  ,                                       ! Interpolate to Timestep
  24,                                     ! Hour 1
  0,                                      ! Minute 1
  0.29999999999999999;                    ! Value Until Time 1

OS:Schedule:Day,
  {9151b544-a117-4aa7-86fa-88eabad550fe}, ! Handle
  Office Bldg Equip Rule 2 Day Schedule,  ! Name
  {dfb97e4e-9513-4136-994b-abf128d80698}, ! Schedule Type Limits Name
  ,                                       ! Interpolate to Timestep
  6,                                      ! Hour 1
  0,                                      ! Minute 1
  0.29999999999999999,                    ! Value Until Time 1
  8,                                      ! Hour 2
  0,                                      ! Minute 2
  0.40000000000000002,                    ! Value Until Time 2
  14,                                     ! Hour 3
  0,                                      ! Minute 3
  0.5,                                    ! Value Until Time 3
  17,                                     ! Hour 4
  0,                                      ! Minute 4
  0.34999999999999998,                    ! Value Until Time 4
  24,                                     ! Hour 5
  0,                                      ! Minute 5
  0.29999999999999999;                    ! Value Until Time 5

OS:Schedule:Ruleset,
  {e28ae450-cf94-43f1-8854-9f6b79070499}, ! Handle
  Office Infil Quarter On,                ! Name
  {dfb97e4e-9513-4136-994b-abf128d80698}, ! Schedule Type Limits Name
  {94c9a9bd-8992-4de8-a95e-ba2a1f7be3fb}, ! Default Day Schedule Name
  {60b3aa6c-b656-4eac-943a-a47a1cf33d96}, ! Summer Design Day Schedule Name
  {b429fbd5-9f18-42f3-a358-9f32aa622186}; ! Winter Design Day Schedule Name

OS:Schedule:Day,
  {94c9a9bd-8992-4de8-a95e-ba2a1f7be3fb}, ! Handle
  Office Infil Quarter On Default Schedule, ! Name
  {dfb97e4e-9513-4136-994b-abf128d80698}, ! Schedule Type Limits Name
  ,                                       ! Interpolate to Timestep
  6,                                      !- Hour 1
  0,                                      !- Minute 1
  1,                                      !- Value Until Time 1
  22,                                     !- Hour 2
  0,                                      !- Minute 2
  0.25,                                   !- Value Until Time 2
  24,                                     !- Hour 3
  0,                                      !- Minute 3
  1;                                      !- Value Until Time 3

OS:Schedule:Day,
  {60b3aa6c-b656-4eac-943a-a47a1cf33d96}, ! Handle
  Office Infil Quarter On Summer Design Day, ! Name
  {dfb97e4e-9513-4136-994b-abf128d80698}, ! Schedule Type Limits Name
  ,                                       ! Interpolate to Timestep
  6,                                      ! Hour 1
  0,                                      ! Minute 1
  1,                                      ! Value Until Time 1
  22,                                     ! Hour 2
  0,                                      ! Minute 2
  0.25,                                   ! Value Until Time 2
  24,                                     ! Hour 3
  0,                                      ! Minute 3
  1;                                      ! Value Until Time 3

OS:Schedule:Day,
  {b429fbd5-9f18-42f3-a358-9f32aa622186}, ! Handle
  Office Infil Quarter On Winter Design Day, ! Name
  {dfb97e4e-9513-4136-994b-abf128d80698}, ! Schedule Type Limits Name
  ,                                       ! Interpolate to Timestep
  6,                                      ! Hour 1
  0,                                      ! Minute 1
  1,                                      ! Value Until Time 1
  18,                                     ! Hour 2
  0,                                      ! Minute 2
  0.25,                                   ! Value Until Time 2
  24,                                     ! Hour 3
  0,                                      ! Minute 3
  1;                                      ! Value Until Time 3

OS:Schedule:Rule,
  {8bc8a83e-d80c-418a-bb70-39374589463a}, ! Handle
  Office Infil Quarter On Rule 1,         ! Name
  {e28ae450-cf94-43f1-8854-9f6b79070499}, ! Schedule Ruleset Name
  0,                                      ! Rule Order
  {25da49fb-9f46-40a1-a62d-e3cfac4fb664}, ! Day Schedule Name
  Yes,                                    ! Apply Sunday
  No,                                     ! Apply Monday
  No,                                     ! Apply Tuesday
  No,                                     ! Apply Wednesday
  No,                                     ! Apply Thursday
  No,                                     ! Apply Friday
  No,                                     ! Apply Saturday
  ,                                       ! Apply Holiday
  DateRange,                              ! Date Specification Type
  1,                                      ! Start Month
  1,                                      ! Start Day
  12,                                     ! End Month
  31;                                     ! End Day

OS:Schedule:Rule,
  {aec14be0-0d8e-40de-af83-a60d7fbbeca8}, ! Handle
  Office Infil Quarter On Rule 2,         ! Name
  {e28ae450-cf94-43f1-8854-9f6b79070499}, ! Schedule Ruleset Name
  1,                                      ! Rule Order
  {cce6aeac-933a-4037-a573-8855d4bf4477}, ! Day Schedule Name
  No,                                     ! Apply Sunday
  No,                                     ! Apply Monday
  No,                                     ! Apply Tuesday
  No,                                     ! Apply Wednesday
  No,                                     ! Apply Thursday
  No,                                     ! Apply Friday
  Yes,                                    ! Apply Saturday
  ,                                       ! Apply Holiday
  DateRange,                              ! Date Specification Type
  1,                                      ! Start Month
  1,                                      ! Start Day
  12,                                     ! End Month
  31;                                     ! End Day

OS:Schedule:Day,
  {25da49fb-9f46-40a1-a62d-e3cfac4fb664}, ! Handle
  Office Infil Quarter On Rule 1 Day Schedule, ! Name
  {dfb97e4e-9513-4136-994b-abf128d80698}, ! Schedule Type Limits Name
  ,                                       ! Interpolate to Timestep
  24,                                     ! Hour 1
  0,                                      ! Minute 1
  1;                                      ! Value Until Time 1

OS:Schedule:Day,
  {cce6aeac-933a-4037-a573-8855d4bf4477}, ! Handle
  Office Infil Quarter On Rule 2 Day Schedule, ! Name
  {dfb97e4e-9513-4136-994b-abf128d80698}, ! Schedule Type Limits Name
  ,                                       ! Interpolate to Timestep
  6,                                      ! Hour 1
  0,                                      ! Minute 1
  1,                                      ! Value Until Time 1
  18,                                     ! Hour 2
  0,                                      ! Minute 2
  0.25,                                   ! Value Until Time 2
  24,                                     ! Hour 3
  0,                                      ! Minute 3
  1;                                      ! Value Until Time 3

OS:ScheduleTypeLimits,
  {dfb97e4e-9513-4136-994b-abf128d80698}, ! Handle
  Fraction,                               ! Name