
OS:Version,
  {4f2ac8f0-eff0-4333-b1ec-b4cdbc116904}, !- Handle
  1.9.0;                                  !- Version Identifier

OS:Facility,
  {bf27293e-6a7c-408c-8bbb-e57a55d11d98}; !- Handle

OS:Building,
  {a3494387-ba33-49c8-a21e-f6d8a207f6a6}, !- Handle
  Building 1,                             !- Name
  ,                                       !- Building Sector Type
  ,                                       !- North Axis {deg}
  ,                                       !- Nominal Floor to Floor Height {m}
  ,                                       !- Space Type Name
  ,                                       !- Default Construction Set Name
  ;                                       !- Default Schedule Set Name

OS:BuildingStory,
  {4c1af444-5016-4a02-8243-53b274dbb95a}, !- Handle
  Level 1,                                !- Name
  ,                                       !- Nominal Z Coordinate {m}
  ,                                       !- Nominal Floor to Floor Height {m}
  ,                                       !- Default Construction Set Name
  ,                                       !- Default Schedule Set Name
  ;                                       !- Group Rendering Name

OS:BuildingStory,
  {b18f3acc-74e0-4efb-8b06-6369c5a89b32}, !- Handle
  Level 2,                                !- Name
  ,                                       !- Nominal Z Coordinate {m}
  3.9624,                                 !- Nominal Floor to Floor Height {m}
  ,                                       !- Default Construction Set Name
  ,                                       !- Default Schedule Set Name
  ;                                       !- Group Rendering Name

OS:BuildingStory,
  {8392bcf3-6b7b-4e03-bd03-5975cc6d71f9}, !- Handle
  Level 3,                                !- Name
  ,                                       !- Nominal Z Coordinate {m}
  7.9248,                                 !- Nominal Floor to Floor Height {m}
  ,                                       !- Default Construction Set Name
  ,                                       !- Default Schedule Set Name
  ;                                       !- Group Rendering Name

OS:Space,
  {70e25d06-dcb7-4a35-948a-b054ea22351f}, !- Handle
  sp-2-Space,                             !- Name
  ,                                       !- Space Type Name
  ,                                       !- Default Construction Set Name
  ,                                       !- Default Schedule Set Name
  ,                                       !- Direction of Relative North {deg}
  ,                                       !- X Origin {m}
  ,                                       !- Y Origin {m}
  ,                                       !- Z Origin {m}
  {4c1af444-5016-4a02-8243-53b274dbb95a}, !- Building Story Name
  {2d8222a5-34cf-4710-b70f-d5984871d954}; !- Thermal Zone Name

OS:Surface,
  {722aa2d0-0831-4b6e-80b2-d7f05c3a8628}, !- Handle
  Surface 1,                              !- Name
  Floor,                                  !- Surface Type
  ,                                       !- Construction Name
  {70e25d06-dcb7-4a35-948a-b054ea22351f}, !- Space Name
  Ground,                                 !- Outside Boundary Condition
  ,                                       !- Outside Boundary Condition Object
  NoSun,                                  !- Sun Exposure
  NoWind,                                 !- Wind Exposure
  ,                                       !- View Factor to Ground
  ,                                       !- Number of Vertices
  -12.192, 0, 0,                          !- X,Y,Z Vertex 1 {m}
  -12.192, 4.572, 0,                      !- X,Y,Z Vertex 2 {m}
  0, 4.572, 0,                            !- X,Y,Z Vertex 3 {m}
  0, 0, 0;                                !- X,Y,Z Vertex 4 {m}

OS:Surface,
  {b60159b9-209a-433c-a0f8-84f6ba46cafd}, !- Handle
  Surface 2,                              !- Name
  Wall,                                   !- Surface Type
  ,                                       !- Construction Name
  {70e25d06-dcb7-4a35-948a-b054ea22351f}, !- Space Name
  Outdoors,                               !- Outside Boundary Condition
  ,                                       !- Outside Boundary Condition Object
  SunExposed,                             !- Sun Exposure
  WindExposed,                            !- Wind Exposure
  ,                                       !- View Factor to Ground
  ,                                       !- Number of Vertices
  -12.192, 4.572, 3.9624,                 !- X,Y,Z Vertex 1 {m}
  -12.192, 4.572, 0,                      !- X,Y,Z Vertex 2 {m}
  -12.192, 0, 0,                          !- X,Y,Z Vertex 3 {m}
  -12.192, 0, 3.9624;                     !- X,Y,Z Vertex 4 {m}

OS:Surface,
  {82c96c38-cb5d-403c-9db5-fafce9f6e9a6}, !- Handle
  Surface 3,                              !- Name
  Wall,                                   !- Surface Type
  ,                                       !- Construction Name
  {70e25d06-dcb7-4a35-948a-b054ea22351f}, !- Space Name
  Surface,                                !- Outside Boundary Condition
  {e478b00b-08a9-4124-856f-9d64785568d6}, !- Outside Boundary Condition Object
  NoSun,                                  !- Sun Exposure
  NoWind,                                 !- Wind Exposure
  ,                                       !- View Factor to Ground
  ,                                       !- Number of Vertices
  0, 4.572, 3.9624,                       !- X,Y,Z Vertex 1 {m}
  0, 4.572, 0,                            !- X,Y,Z Vertex 2 {m}
  -12.192, 4.572, 0,                      !- X,Y,Z Vertex 3 {m}
  -12.192, 4.572, 3.9624;                 !- X,Y,Z Vertex 4 {m}

OS:Surface,
  {d4979d0c-8734-4947-b166-76bd1a7627c9}, !- Handle
  Surface 4,                              !- Name
  Wall,                                   !- Surface Type
  ,                                       !- Construction Name
  {70e25d06-dcb7-4a35-948a-b054ea22351f}, !- Space Name
  Surface,                                !- Outside Boundary Condition
  {855faf18-1b84-4153-b6a7-a3c19b521071}, !- Outside Boundary Condition Object
  NoSun,                                  !- Sun Exposure
  NoWind,                                 !- Wind Exposure
  ,                                       !- View Factor to Ground
  ,                                       !- Number of Vertices
  0, 0, 3.9624,                           !- X,Y,Z Vertex 1 {m}
  0, 0, 0,                                !- X,Y,Z Vertex 2 {m}
  0, 4.572, 0,                            !- X,Y,Z Vertex 3 {m}
  0, 4.572, 3.9624;                       !- X,Y,Z Vertex 4 {m}

OS:Surface,
  {f5736adf-9c7d-4023-82dc-ed0466bfdb54}, !- Handle
  Surface 5,                              !- Name
  Wall,                                   !- Surface Type
  ,                                       !- Construction Name
  {70e25d06-dcb7-4a35-948a-b054ea22351f}, !- Space Name
  Outdoors,                               !- Outside Boundary Condition
  ,                                       !- Outside Boundary Condition Object
  SunExposed,                             !- Sun Exposure
  WindExposed,                            !- Wind Exposure
  ,                                       !- View Factor to Ground
  ,                                       !- Number of Vertices
  -12.192, 0, 3.9624,                     !- X,Y,Z Vertex 1 {m}
  -12.192, 0, 0,                          !- X,Y,Z Vertex 2 {m}
  0, 0, 0,                                !- X,Y,Z Vertex 3 {m}
  0, 0, 3.9624;                           !- X,Y,Z Vertex 4 {m}

OS:Surface,
  {bf17f788-994c-4712-845c-812983917235}, !- Handle
  Surface 6,                              !- Name
  RoofCeiling,                            !- Surface Type
  ,                                       !- Construction Name
  {70e25d06-dcb7-4a35-948a-b054ea22351f}, !- Space Name
  Surface,                                !- Outside Boundary Condition
  {be54bf4f-13fe-4a3a-8431-cd1aa26b312f}, !- Outside Boundary Condition Object
  NoSun,                                  !- Sun Exposure
  NoWind,                                 !- Wind Exposure
  ,                                       !- View Factor to Ground
  ,                                       !- Number of Vertices
  0, 0, 3.9624,                           !- X,Y,Z Vertex 1 {m}
  0, 4.572, 3.9624,                       !- X,Y,Z Vertex 2 {m}
  -12.192, 4.572, 3.9624,                 !- X,Y,Z Vertex 3 {m}
  -12.192, 0, 3.9624;                     !- X,Y,Z Vertex 4 {m}

OS:Space,
  {c9306176-43e6-49b0-8d6a-bbfc64f3acf0}, !- Handle
  sp-3-Space,                             !- Name
  ,                                       !- Space Type Name
  ,                                       !- Default Construction Set Name
  ,                                       !- Default Schedule Set Name
  ,                                       !- Direction of Relative North {deg}
  ,                                       !- X Origin {m}
  ,                                       !- Y Origin {m}
  ,                                       !- Z Origin {m}
  {4c1af444-5016-4a02-8243-53b274dbb95a}, !- Building Story Name
  {97e72dd1-c9ce-4441-91b6-85c871da2ee8}; !- Thermal Zone Name

OS:Surface,
  {c12c25e3-06ff-4452-8466-d7d22635ec4b}, !- Handle
  Surface 7,                              !- Name
  Floor,                                  !- Surface Type
  ,                                       !- Construction Name
  {c9306176-43e6-49b0-8d6a-bbfc64f3acf0}, !- Space Name
  Ground,                                 !- Outside Boundary Condition
  ,                                       !- Outside Boundary Condition Object
  NoSun,                                  !- Sun Exposure
  NoWind,                                 !- Wind Exposure
  ,                                       !- View Factor to Ground
  ,                                       !- Number of Vertices
  -12.192, 4.572, 0,                      !- X,Y,Z Vertex 1 {m}
  -12.192, 15.24, 0,                      !- X,Y,Z Vertex 2 {m}
  0, 15.24, 0,                            !- X,Y,Z Vertex 3 {m}
  0, 4.572, 0;                            !- X,Y,Z Vertex 4 {m}

OS:Surface,
  {a1a7f144-335a-4e57-8135-adf73794c058}, !- Handle
  Surface 8,                              !- Name
  Wall,                                   !- Surface Type
  ,                                       !- Construction Name
  {c9306176-43e6-49b0-8d6a-bbfc64f3acf0}, !- Space Name
  Outdoors,                               !- Outside Boundary Condition
  ,                                       !- Outside Boundary Condition Object
  SunExposed,                             !- Sun Exposure
  WindExposed,                            !- Wind Exposure
  ,                                       !- View Factor to Ground
  ,                                       !- Number of Vertices
  -12.192, 15.24, 3.9624,                 !- X,Y,Z Vertex 1 {m}
  -12.192, 15.24, 0,                      !- X,Y,Z Vertex 2 {m}
  -12.192, 4.572, 0,                      !- X,Y,Z Vertex 3 {m}
  -12.192, 4.572, 3.9624;                 !- X,Y,Z Vertex 4 {m}

OS:Surface,
  {65e1c568-d20b-40fe-8f02-929a3bf1d3ae}, !- Handle
  Surface 9,                              !- Name
  Wall,                                   !- Surface Type
  ,                                       !- Construction Name
  {c9306176-43e6-49b0-8d6a-bbfc64f3acf0}, !- Space Name
  Outdoors,                               !- Outside Boundary Condition
  ,                                       !- Outside Boundary Condition Object
  SunExposed,                             !- Sun Exposure
  WindExposed,                            !- Wind Exposure
  ,                                       !- View Factor to Ground
  ,                                       !- Number of Vertices
  0, 15.24, 3.9624,                       !- X,Y,Z Vertex 1 {m}
  0, 15.24, 0,                            !- X,Y,Z Vertex 2 {m}
  -12.192, 15.24, 0,                      !- X,Y,Z Vertex 3 {m}
  -12.192, 15.24, 3.9624;                 !- X,Y,Z Vertex 4 {m}

OS:Surface,
  {c8d7e9ac-2866-4e85-9f66-97a4d9869fc7}, !- Handle
  Surface 10,                             !- Name
  Wall,                                   !- Surface Type
  ,                                       !- Construction Name
  {c9306176-43e6-49b0-8d6a-bbfc64f3acf0}, !- Space Name
  Outdoors,                               !- Outside Boundary Condition
  ,                                       !- Outside Boundary Condition Object
  SunExposed,                             !- Sun Exposure
  WindExposed,                            !- Wind Exposure
  ,                                       !- View Factor to Ground
  ,                                       !- Number of Vertices
  0, 4.572, 3.9624,                       !- X,Y,Z Vertex 1 {m}
  0, 4.572, 0,                            !- X,Y,Z Vertex 2 {m}
  0, 15.24, 0,                            !- X,Y,Z Vertex 3 {m}
  0, 15.24, 3.9624;                       !- X,Y,Z Vertex 4 {m}

OS:Surface,
  {e478b00b-08a9-4124-856f-9d64785568d6}, !- Handle
  Surface 11,                             !- Name
  Wall,                                   !- Surface Type
  ,                                       !- Construction Name
  {c9306176-43e6-49b0-8d6a-bbfc64f3acf0}, !- Space Name
  Surface,                                !- Outside Boundary Condition
  {82c96c38-cb5d-403c-9db5-fafce9f6e9a6}, !- Outside Boundary Condition Object
  NoSun,                                  !- Sun Exposure
  NoWind,                                 !- Wind Exposure
  ,                                       !- View Factor to Ground
  ,                                       !- Number of Vertices
  -12.192, 4.572, 3.9624,                 !- X,Y,Z Vertex 1 {m}
  -12.192, 4.572, 0,                      !- X,Y,Z Vertex 2 {m}
  0, 4.572, 0,                            !- X,Y,Z Vertex 3 {m}
  0, 4.572, 3.9624;                       !- X,Y,Z Vertex 4 {m}

OS:Surface,
  {734137f8-7be9-43bf-8a8a-40c1c47f71bd}, !- Handle
  Surface 12,                             !- Name
  RoofCeiling,                            !- Surface Type
  ,                                       !- Construction Name
  {c9306176-43e6-49b0-8d6a-bbfc64f3acf0}, !- Space Name
  Surface,                                !- Outside Boundary Condition
  {f21f2720-2215-465c-89e5-86fd9d466bf7}, !- Outside Boundary Condition Object
  NoSun,                                  !- Sun Exposure
  NoWind,                                 !- Wind Exposure
  ,                                       !- View Factor to Ground
  ,                                       !- Number of Vertices
  0, 10.668, 3.9624,                      !- X,Y,Z Vertex 1 {m}
  0, 15.24, 3.9624,                       !- X,Y,Z Vertex 2 {m}
  -12.192, 15.24, 3.9624,                 !- X,Y,Z Vertex 3 {m}
  -12.192, 10.668, 3.9624;                !- X,Y,Z Vertex 4 {m}

OS:Space,
  {ab7d0286-bef2-4bab-ba91-c7cee6e5ca81}, !- Handle
  sp-4-Space,                             !- Name
  ,                                       !- Space Type Name
  ,                                       !- Default Construction Set Name
  ,                                       !- Default Schedule Set Name
  ,                                       !- Direction of Relative North {deg}
  ,                                       !- X Origin {m}
  ,                                       !- Y Origin {m}
  ,                                       !- Z Origin {m}
  {4c1af444-5016-4a02-8243-53b274dbb95a}, !- Building Story Name
  {a247961a-2722-49f6-871a-9ee7c7a0b158}; !- Thermal Zone Name

OS:Surface,
  {b4312167-35c6-4dc9-b862-d2fa6bd24630}, !- Handle
  Surface 13,                             !- Name
  Floor,                                  !- Surface Type
  ,                                       !- Construction Name
  {ab7d0286-bef2-4bab-ba91-c7cee6e5ca81}, !- Space Name
  Ground,                                 !- Outside Boundary Condition
  ,                                       !- Outside Boundary Condition Object
  NoSun,                                  !- Sun Exposure
  NoWind,                                 !- Wind Exposure
  ,                                       !- View Factor to Ground
  ,                                       !- Number of Vertices
  0, 0, 0,                                !- X,Y,Z Vertex 1 {m}
  0, 15.24, 0,                            !- X,Y,Z Vertex 2 {m}
  15.24, 15.24, 0,                        !- X,Y,Z Vertex 3 {m}
  15.24, 0, 0;                            !- X,Y,Z Vertex 4 {m}

OS:Surface,
  {855faf18-1b84-4153-b6a7-a3c19b521071}, !- Handle
  Surface 14,                             !- Name
  Wall,                                   !- Surface Type
  ,                                       !- Construction Name
  {ab7d0286-bef2-4bab-ba91-c7cee6e5ca81}, !- Space Name
  Surface,                                !- Outside Boundary Condition
  {d4979d0c-8734-4947-b166-76bd1a7627c9}, !- Outside Boundary Condition Object
  NoSun,                                  !- Sun Exposure
  NoWind,                                 !- Wind Exposure
  ,                                       !- View Factor to Ground
  ,                                       !- Number of Vertices
  0, 4.572, 3.9624,                       !- X,Y,Z Vertex 1 {m}
  0, 4.572, 0,                            !- X,Y,Z Vertex 2 {m}
  0, 0, 0,                                !- X,Y,Z Vertex 3 {m}
  0, 0, 3.9624;                           !- X,Y,Z Vertex 4 {m}

OS:Surface,
  {774e7f3d-580a-4953-9040-7be06ca95145}, !- Handle
  Surface 15,                             !- Name
  Wall,                                   !- Surface Type
  ,                                       !- Construction Name
  {ab7d0286-bef2-4bab-ba91-c7cee6e5ca81}, !- Space Name
  Outdoors,                               !- Outside Boundary Condition
  ,                                       !- Outside Boundary Condition Object
  SunExposed,                             !- Sun Exposure
  WindExposed,                            !- Wind Exposure
  ,                                       !- View Factor to Ground
  ,                                       !- Number of Vertices
  15.24, 15.24, 7.9248,                   !- X,Y,Z Vertex 1 {m}
  15.24, 15.24, 0,                        !- X,Y,Z Vertex 2 {m}
  0, 15.24, 0,                            !- X,Y,Z Vertex 3 {m}
  0, 15.24, 7.9248;                       !- X,Y,Z Vertex 4 {m}

OS:Surface,
  {cb2cb04f-b1b5-4088-9e74-bea195bd3aac}, !- Handle
  Surface 16,                             !- Name
  Wall,                                   !- Surface Type
  ,                                       !- Construction Name
  {ab7d0286-bef2-4bab-ba91-c7cee6e5ca81}, !- Space Name
  Outdoors,                               !- Outside Boundary Condition
  ,                                       !- Outside Boundary Condition Object
  SunExposed,                             !- Sun Exposure
  WindExposed,                            !- Wind Exposure
  ,                                       !- View Factor to Ground
  ,                                       !- Number of Vertices
  15.24, 0, 7.9248,                       !- X,Y,Z Vertex 1 {m}
  15.24, 0, 0,                            !- X,Y,Z Vertex 2 {m}
  15.24, 15.24, 0,                        !- X,Y,Z Vertex 3 {m}
  15.24, 15.24, 7.9248;                   !- X,Y,Z Vertex 4 {m}

OS:Surface,
  {2f8dc858-cd77-4eac-975e-84d2fc7816cc}, !- Handle
  Surface 17,                             !- Name
  Wall,                                   !- Surface Type
  ,                                       !- Construction Name
  {ab7d0286-bef2-4bab-ba91-c7cee6e5ca81}, !- Space Name
  Outdoors,                               !- Outside Boundary Condition
  ,                                       !- Outside Boundary Condition Object
  SunExposed,                             !- Sun Exposure
  WindExposed,                            !- Wind Exposure
  ,                                       !- View Factor to Ground
  ,                                       !- Number of Vertices
  0, 0, 7.9248,                           !- X,Y,Z Vertex 1 {m}
  0, 0, 0,                                !- X,Y,Z Vertex 2 {m}
  15.24, 0, 0,                            !- X,Y,Z Vertex 3 {m}
  15.24, 0, 7.9248;                       !- X,Y,Z Vertex 4 {m}

OS:Surface,
  {f8f52c46-e539-4946-9964-bb6ed499be53}, !- Handle
  Surface 18,                             !- Name
  RoofCeiling,                            !- Surface Type
  ,                                       !- Construction Name
  {ab7d0286-bef2-4bab-ba91-c7cee6e5ca81}, !- Space Name
  Outdoors,                               !- Outside Boundary Condition
  ,                                       !- Outside Boundary Condition Object
  SunExposed,                             !- Sun Exposure
  WindExposed,                            !- Wind Exposure
  ,                                       !- View Factor to Ground
  ,                                       !- Number of Vertices
  15.24, 0, 7.9248,                       !- X,Y,Z Vertex 1 {m}
  15.24, 15.24, 7.9248,                   !- X,Y,Z Vertex 2 {m}
  0, 15.24, 7.9248,                       !- X,Y,Z Vertex 3 {m}
  0, 0, 7.9248;                           !- X,Y,Z Vertex 4 {m}

OS:Space,
  {0444e5c9-4da5-4da0-9636-978b4fa4b39f}, !- Handle
  sp-5-Space,                             !- Name
  ,                                       !- Space Type Name
  ,                                       !- Default Construction Set Name
  ,                                       !- Default Schedule Set Name
  ,                                       !- Direction of Relative North {deg}
  ,                                       !- X Origin {m}
  ,                                       !- Y Origin {m}
  ,                                       !- Z Origin {m}
  {b18f3acc-74e0-4efb-8b06-6369c5a89b32}, !- Building Story Name
  {430fe09f-0945-46b9-a041-a47f76f066dd}; !- Thermal Zone Name

OS:Surface,
  {be54bf4f-13fe-4a3a-8431-cd1aa26b312f}, !- Handle
  Surface 19,                             !- Name
  Floor,                                  !- Surface Type
  ,                                       !- Construction Name
  {0444e5c9-4da5-4da0-9636-978b4fa4b39f}, !- Space Name
  Surface,                                !- Outside Boundary Condition
  {bf17f788-994c-4712-845c-812983917235}, !- Outside Boundary Condition Object
  NoSun,                                  !- Sun Exposure
  NoWind,                                 !- Wind Exposure
  ,                                       !- View Factor to Ground
  ,                                       !- Number of Vertices
  0, 4.572, 3.9624,                       !- X,Y,Z Vertex 1 {m}
  0, 0, 3.9624,                           !- X,Y,Z Vertex 2 {m}
  -12.192, 0, 3.9624,                     !- X,Y,Z Vertex 3 {m}
  -12.192, 4.572, 3.9624;                 !- X,Y,Z Vertex 4 {m}

OS:Surface,
  {462b3b07-fae4-4d3e-8a2f-cfb98908a820}, !- Handle
  Surface 20,                             !- Name
  Wall,                                   !- Surface Type
  ,                                       !- Construction Name
  {0444e5c9-4da5-4da0-9636-978b4fa4b39f}, !- Space Name
  Outdoors,                               !- Outside Boundary Condition
  ,                                       !- Outside Boundary Condition Object
  SunExposed,                             !- Sun Exposure
  WindExposed,                            !- Wind Exposure
  ,                                       !- View Factor to Ground
  ,                                       !- Number of Vertices
  -12.192, 10.668, 7.9248,                !- X,Y,Z Vertex 1 {m}
  -12.192, 10.668, 3.9624,                !- X,Y,Z Vertex 2 {m}
  -12.192, 0, 3.9624,                     !- X,Y,Z Vertex 3 {m}
  -12.192, 0, 7.9248;                     !- X,Y,Z Vertex 4 {m}

OS:Surface,
  {a380cd10-1463-4a3a-a8b4-66ccfa6e24ec}, !- Handle
  Surface 21,                             !- Name
  Wall,                                   !- Surface Type
  ,                                       !- Construction Name
  {0444e5c9-4da5-4da0-9636-978b4fa4b39f}, !- Space Name
  Surface,                                !- Outside Boundary Condition
  {9f980fba-2b84-4e72-99a1-f0ba9c6aaebc}, !- Outside Boundary Condition Object
  NoSun,                                  !- Sun Exposure
  NoWind,                                 !- Wind Exposure
  ,                                       !- View Factor to Ground
  ,                                       !- Number of Vertices
  0, 10.668, 7.9248,                      !- X,Y,Z Vertex 1 {m}
  0, 10.668, 3.9624,                      !- X,Y,Z Vertex 2 {m}
  -12.192, 10.668, 3.9624,                !- X,Y,Z Vertex 3 {m}
  -12.192, 10.668, 7.9248;                !- X,Y,Z Vertex 4 {m}

OS:Surface,
  {9917f284-c344-4294-b97a-e3ef4fb2fa83}, !- Handle
  Surface 22,                             !- Name
  Wall,                                   !- Surface Type
  ,                                       !- Construction Name
  {0444e5c9-4da5-4da0-9636-978b4fa4b39f}, !- Space Name
  Surface,                                !- Outside Boundary Condition
  {02d110cd-073c-4c2e-b60c-c252153505ba}, !- Outside Boundary Condition Object
  NoSun,                                  !- Sun Exposure
  NoWind,                                 !- Wind Exposure
  ,                                       !- View Factor to Ground
  ,                                       !- Number of Vertices
  0, 0, 7.9248,                           !- X,Y,Z Vertex 1 {m}
  0, 0, 3.9624,                           !- X,Y,Z Vertex 2 {m}
  0, 10.668, 3.9624,                      !- X,Y,Z Vertex 3 {m}
  0, 10.668, 7.9248;                      !- X,Y,Z Vertex 4 {m}

OS:Surface,
  {9bc51356-b6a9-4ab4-8857-2cbb4cd3ca87}, !- Handle
  Surface 23,                             !- Name
  Wall,                                   !- Surface Type
  ,                                       !- Construction Name
  {0444e5c9-4da5-4da0-9636-978b4fa4b39f}, !- Space Name
  Outdoors,                               !- Outside Boundary Condition
  ,                                       !- Outside Boundary Condition Object
  SunExposed,                             !- Sun Exposure
  WindExposed,                            !- Wind Exposure
  ,                                       !- View Factor to Ground
  ,                                       !- Number of Vertices
  -12.192, 0, 7.9248,                     !- X,Y,Z Vertex 1 {m}
  -12.192, 0, 3.9624,                     !- X,Y,Z Vertex 2 {m}
  0, 0, 3.9624,                           !- X,Y,Z Vertex 3 {m}
  0, 0, 7.9248;                           !- X,Y,Z Vertex 4 {m}

OS:Surface,
  {d8794509-39fc-40d8-ad68-b1751e6c7289}, !- Handle
  Surface 24,                             !- Name
  RoofCeiling,                            !- Surface Type
  ,                                       !- Construction Name
  {0444e5c9-4da5-4da0-9636-978b4fa4b39f}, !- Space Name
  Outdoors,                               !- Outside Boundary Condition
  ,                                       !- Outside Boundary Condition Object
  SunExposed,                             !- Sun Exposure
  WindExposed,                            !- Wind Exposure
  ,                                       !- View Factor to Ground
  ,                                       !- Number of Vertices
  0, 0, 7.9248,                           !- X,Y,Z Vertex 1 {m}
  0, 10.668, 7.9248,                      !- X,Y,Z Vertex 2 {m}
  -12.192, 10.668, 7.9248,                !- X,Y,Z Vertex 3 {m}
  -12.192, 0, 7.9248;                     !- X,Y,Z Vertex 4 {m}

OS:Space,
  {1bd454b0-2661-4013-b3dd-3adb1c61931e}, !- Handle
  sp-6-Space,                             !- Name
  ,                                       !- Space Type Name
  ,                                       !- Default Construction Set Name
  ,                                       !- Default Schedule Set Name
  ,                                       !- Direction of Relative North {deg}
  ,                                       !- X Origin {m}
  ,                                       !- Y Origin {m}
  ,                                       !- Z Origin {m}
  {b18f3acc-74e0-4efb-8b06-6369c5a89b32}, !- Building Story Name
  {4271ec1e-97f4-4083-b8fa-3cdf28d608b8}; !- Thermal Zone Name

OS:Surface,
  {f21f2720-2215-465c-89e5-86fd9d466bf7}, !- Handle
  Surface 25,                             !- Name
  Floor,                                  !- Surface Type
  ,                                       !- Construction Name
  {1bd454b0-2661-4013-b3dd-3adb1c61931e}, !- Space Name
  Surface,                                !- Outside Boundary Condition
  {734137f8-7be9-43bf-8a8a-40c1c47f71bd}, !- Outside Boundary Condition Object
  NoSun,                                  !- Sun Exposure
  NoWind,                                 !- Wind Exposure
  ,                                       !- View Factor to Ground
  ,                                       !- Number of Vertices
  0, 15.24, 3.9624,                       !- X,Y,Z Vertex 1 {m}
  0, 10.668, 3.9624,                      !- X,Y,Z Vertex 2 {m}
  -12.192, 10.668, 3.9624,                !- X,Y,Z Vertex 3 {m}
  -12.192, 15.24, 3.9624;                 !- X,Y,Z Vertex 4 {m}

OS:Surface,
  {c7dfb6f9-b15d-4ffb-972e-888f4ad14861}, !- Handle
  Surface 26,                             !- Name
  Wall,                                   !- Surface Type
  ,                                       !- Construction Name
  {1bd454b0-2661-4013-b3dd-3adb1c61931e}, !- Space Name
  Outdoors,                               !- Outside Boundary Condition
  ,                                       !- Outside Boundary Condition Object
  SunExposed,                             !- Sun Exposure
  WindExposed,                            !- Wind Exposure
  ,                                       !- View Factor to Ground