
OS:Version,
  {baa7b291-5aed-47b0-a652-4c2726d6a859}, !- Handle
  1.12.2;                                 !- Version Identifier

OS:SpaceType,
  {17298d80-8bed-45e9-87c9-b71c73836a9f}, !- Handle
  189.1-2009 - Office - Lobby - CZ4-8,    !- Name
  ,                                       !- Default Construction Set Name
  {5940a067-282d-4b6c-a161-b842ab8148ec}, !- Default Schedule Set Name
  {d8b3a234-4e0a-47f3-8a46-a735cb0cdb14}, !- Group Rendering Name
  {3917a79b-fd17-4559-bbf6-c860cfc600e8}, !- Design Specification Outdoor Air Object Name
  Office,                                 !- Standards Building Type
  Lobby;                                  !- Standards Space Type

OS:DefaultScheduleSet,
  {5940a067-282d-4b6c-a161-b842ab8148ec}, !- Handle
  189.1-2009 - Office - Lobby - CZ4-8 Schedule Set, !- Name
  ,                                       !- Hours of Operation Schedule Name
  {064381a0-df3a-4e78-84f3-0db72b6e9932}, !- Number of People Schedule Name
  {e525ddd2-3d00-4541-ae13-d373896294f7}, !- People Activity Level Schedule Name
  {198547a6-3c1e-4867-a644-a0bd599c309e}, !- Lighting Schedule Name
  {0b008aa9-81f5-41b8-aa54-f944920bbdb9}, !- Electric Equipment Schedule Name
  ,                                       !- Gas Equipment Schedule Name
  ,                                       !- Hot Water Equipment Schedule Name
  {4284b06d-0dc8-4ea6-b114-20eef83f1f41}, !- Infiltration Schedule Name
  ,                                       !- Steam Equipment Schedule Name
  ;                                       !- Other Equipment Schedule Name

OS:Rendering:Color,
  {d8b3a234-4e0a-47f3-8a46-a735cb0cdb14}, !- Handle
  Rendering Color 23,                     !- Name
  230,                                    !- Rendering Red Value
  157,                                    !- Rendering Green Value
  120;                                    !- Rendering Blue Value

OS:DesignSpecification:OutdoorAir,
  {3917a79b-fd17-4559-bbf6-c860cfc600e8}, !- Handle
  189.1-2009 - Office - Lobby - CZ4-8 Ventilation, !- Name
  Sum,                                    !- Outdoor Air Method
  0.007079211648,                         !- Outdoor Air Flow per Person {m3/s-person}
  ,                                       !- Outdoor Air Flow per Floor Area {m3/s-m2}
  ,                                       !- Outdoor Air Flow Rate {m3/s}
  ,                                       !- Outdoor Air Flow Air Changes per Hour {1/hr}
  ;                                       !- Outdoor Air Flow Rate Fraction Schedule Name

OS:Schedule:Ruleset,
  {064381a0-df3a-4e78-84f3-0db72b6e9932}, ! Handle
  Office Misc Occ,                        ! Name
  {19fba8c7-22e9-4110-819e-5b216596fedb}, ! Schedule Type Limits Name
  {6e39ece2-b2b3-4788-86f6-f1b6bf4e9b4e}, ! Default Day Schedule Name
  {2df0d99a-e61f-40b0-bd49-5a38ab3ddd09}, ! Summer Design Day Schedule Name
  {b7d17f85-fff9-49c7-9817-06e79350379e}; ! Winter Design Day Schedule Name

OS:Schedule:Day,
  {6e39ece2-b2b3-4788-86f6-f1b6bf4e9b4e}, ! Handle
  Office Bldg Occ Default Schedule 1,     ! Name
  {19fba8c7-22e9-4110-819e-5b216596fedb}, ! Schedule Type Limits Name
  ,                                       ! Interpolate to Timestep
  6,                                      !- Hour 1
  0,                                      !- Minute 1
  0,                                      !- Value Until Time 1
  7,                                      !- Hour 2
  0,                                      !- Minute 2
  0.100000001490116,                      !- Value Until Time 2
  8,                                      !- Hour 3
  0,                                      !- Minute 3
  0.200000002980232,                      !- Value Until Time 3
  20,                                     !- Hour 4
  0,                                      !- Minute 4
  0.400000005960464,                      !- Value Until Time 4
  22,                                     !- Hour 5
  0,                                      !- Minute 5
  0.100000001490116,                      !- Value Until Time 5
  24,                                     !- Hour 6
  0,                                      !- Minute 6
  0.0500000007450581;                     !- Value Until Time 6

OS:Schedule:Day,
  {2df0d99a-e61f-40b0-bd49-5a38ab3ddd09}, ! Handle
  Office Bldg Occ Summer Design Day 1,    ! Name
  {19fba8c7-22e9-4110-819e-5b216596fedb}, ! Schedule Type Limits Name
  ,                                       ! Interpolate to Timestep
  6,                                      ! Hour 1
  0,                                      ! Minute 1
  0,                                      ! Value Until Time 1
  22,                                     ! Hour 2
  0,                                      ! Minute 2
  1,                                      ! Value Until Time 2
  24,                                     ! Hour 3
  0,                                      ! Minute 3
  0.050000000000000003;                   ! Value Until Time 3

OS:Schedule:Day,
  {b7d17f85-fff9-49c7-9817-06e79350379e}, ! Handle
  Office Bldg Occ Winter Design Day 1,    ! Name
  {19fba8c7-22e9-4110-819e-5b216596fedb}, ! Schedule Type Limits Name
  ,                                       ! Interpolate to Timestep
  24,                                     ! Hour 1
  0,                                      ! Minute 1
  0;                                      ! Value Until Time 1

OS:Schedule:Rule,
  {5a31fb15-8786-4e2c-ba08-0fedee4ecb01}, ! Handle
  Office Misc Occ Rule 1,                 ! Name
  {064381a0-df3a-4e78-84f3-0db72b6e9932}, ! Schedule Ruleset Name
  0,                                      ! Rule Order
  {9d435df1-3747-4652-a7c2-cfbbe8a42289}, ! Day Schedule Name
  Yes,                                    ! Apply Sunday
  No,                                     ! Apply Monday
  No,                                     ! Apply Tuesday
  No,                                     ! Apply Wednesday
  No,                                     ! Apply Thursday
  No,                                     ! Apply Friday
  No,                                     ! Apply Saturday
  ,                                       ! Apply Holiday
  DateRange,                              ! Date Specification Type
  1,                                      ! Start Month
  1,                                      ! Start Day
  12,                                     ! End Month
  31;                                     ! End Day

OS:Schedule:Rule,
  {d310c7f2-3ab7-40d6-ad80-d728dc8c8eb3}, ! Handle
  Office Misc Occ Rule 2,                 ! Name
  {064381a0-df3a-4e78-84f3-0db72b6e9932}, ! Schedule Ruleset Name
  1,                                      ! Rule Order
  {ef638368-cd6e-4575-a9b5-f1629cd23d8e}, ! Day Schedule Name
  No,                                     ! Apply Sunday
  No,                                     ! Apply Monday
  No,                                     ! Apply Tuesday
  No,                                     ! Apply Wednesday
  No,                                     ! Apply Thursday
  No,                                     ! Apply Friday
  Yes,                                    ! Apply Saturday
  ,                                       ! Apply Holiday
  DateRange,                              ! Date Specification Type
  1,                                      ! Start Month
  1,                                      ! Start Day
  12,                                     ! End Month
  31;                                     ! End Day

OS:Schedule:Day,
  {9d435df1-3747-4652-a7c2-cfbbe8a42289}, ! Handle
  Office Bldg Occ Rule 1 Day Schedule 1,  ! Name
  {19fba8c7-22e9-4110-819e-5b216596fedb}, ! Schedule Type Limits Name
  ,                                       ! Interpolate to Timestep
  24,                                     ! Hour 1
  0,                                      ! Minute 1
  0;                                      ! Value Until Time 1

OS:Schedule:Day,
  {ef638368-cd6e-4575-a9b5-f1629cd23d8e}, ! Handle
  Office Bldg Occ Rule 2 Day Schedule 1,  ! Name
  {19fba8c7-22e9-4110-819e-5b216596fedb}, ! Schedule Type Limits Name
  ,                                       ! Interpolate to Timestep
  6,                                      !- Hour 1
  0,                                      !- Minute 1
  0,                                      !- Value Until Time 1
  8,                                      !- Hour 2
  0,                                      !- Minute 2
  0.100000001490116,                      !- Value Until Time 2
  14,                                     !- Hour 3
  0,                                      !- Minute 3
  0.25,                                   !- Value Until Time 3
  17,                                     !- Hour 4
  0,                                      !- Minute 4
  0.100000001490116,                      !- Value Until Time 4
  24,                                     !- Hour 5
  0,                                      !- Minute 5
  0;                                      !- Value Until Time 5

OS:Schedule:Ruleset,
  {e525ddd2-3d00-4541-ae13-d373896294f7}, ! Handle
  Office Activity,                        ! Name
  {0cc369e4-5e85-4073-a30c-fdde5d405974}, ! Schedule Type Limits Name
  {8e0e89d7-7f41-44fc-9b72-c4bc34f500ac}, ! Default Day Schedule Name
  {8633db74-dd4d-48aa-94f3-3ae35149689a}, ! Summer Design Day Schedule Name
  {eab3c413-3e60-4094-bc0c-99f3c29c147b}; ! Winter Design Day Schedule Name

OS:Schedule:Day,
  {8e0e89d7-7f41-44fc-9b72-c4bc34f500ac}, ! Handle
  Office Activity Default Schedule,       ! Name
  {0cc369e4-5e85-4073-a30c-fdde5d405974}, ! Schedule Type Limits Name
  ,                                       ! Interpolate to Timestep
  24,                                     !- Hour 1
  0,                                      !- Minute 1
  132;                                    !- Value Until Time 1

OS:Schedule:Day,
  {8633db74-dd4d-48aa-94f3-3ae35149689a}, ! Handle
  Office Activity Summer Design Day,      ! Name
  {0cc369e4-5e85-4073-a30c-fdde5d405974}, ! Schedule Type Limits Name
  ,                                       ! Interpolate to Timestep
  24,                                     !- Hour 1
  0,                                      !- Minute 1
  132;                                    !- Value Until Time 1

OS:Schedule:Day,
  {eab3c413-3e60-4094-bc0c-99f3c29c147b}, ! Handle
  Office Activity Winter Design Day,      ! Name
  {0cc369e4-5e85-4073-a30c-fdde5d405974}, ! Schedule Type Limits Name
  ,                                       ! Interpolate to Timestep
  24,                                     !- Hour 1
  0,                                      !- Minute 1
  132;                                    !- Value Until Time 1

OS:Schedule:Ruleset,
  {198547a6-3c1e-4867-a644-a0bd599c309e}, ! Handle
  Office Bldg Light,                      ! Name
  {19fba8c7-22e9-4110-819e-5b216596fedb}, ! Schedule Type Limits Name
  {185599ba-1345-4868-a871-8ddf3af42929}, ! Default Day Schedule Name
  {7634595f-3bfc-4805-82b7-36f94d509a5c}, ! Summer Design Day Schedule Name
  {b091d4eb-9b0d-46bf-b45e-b6034313592b}; ! Winter Design Day Schedule Name

OS:Schedule:Day,
  {185599ba-1345-4868-a871-8ddf3af42929}, ! Handle
  Office Bldg Light Default Schedule,     ! Name
  {19fba8c7-22e9-4110-819e-5b216596fedb}, ! Schedule Type Limits Name
  ,                                       ! Interpolate to Timestep
  5,                                      !- Hour 1
  0,                                      !- Minute 1
  0.05,                                   !- Value Until Time 1
  7,                                      !- Hour 2
  0,                                      !- Minute 2
  0.1,                                    !- Value Until Time 2
  8,                                      !- Hour 3
  0,                                      !- Minute 3
  0.3,                                    !- Value Until Time 3
  17,                                     !- Hour 4
  0,                                      !- Minute 4
  0.9,                                    !- Value Until Time 4
  18,                                     !- Hour 5
  0,                                      !- Minute 5
  0.7,                                    !- Value Until Time 5
  20,                                     !- Hour 6
  0,                                      !- Minute 6
  0.5,                                    !- Value Until Time 6
  22,                                     !- Hour 7
  0,                                      !- Minute 7
  0.3,                                    !- Value Until Time 7
  23,                                     !- Hour 8
  0,                                      !- Minute 8
  0.1,                                    !- Value Until Time 8
  24,                                     !- Hour 9
  0,                                      !- Minute 9
  0.05;                                   !- Value Until Time 9

OS:Schedule:Day,
  {7634595f-3bfc-4805-82b7-36f94d509a5c}, ! Handle
  Office Bldg Light Summer Design Day,    ! Name
  {19fba8c7-22e9-4110-819e-5b216596fedb}, ! Schedule Type Limits Name
  ,                                       ! Interpolate to Timestep
  24,                                     ! Hour 1
  0,                                      ! Minute 1
  1;                                      ! Value Until Time 1

OS:Schedule:Day,
  {b091d4eb-9b0d-46bf-b45e-b6034313592b}, ! Handle
  Office Bldg Light Winter Design Day,    ! Name
  {19fba8c7-22e9-4110-819e-5b216596fedb}, ! Schedule Type Limits Name
  ,                                       ! Interpolate to Timestep
  24,                                     ! Hour 1
  0,                                      ! Minute 1
  0;                                      ! Value Until Time 1

OS:Schedule:Rule,
  {dc63b721-89e2-41d6-9ca1-fc1cdc28af9a}, ! Handle
  Office Bldg Light Rule 1,               ! Name
  {198547a6-3c1e-4867-a644-a0bd599c309e}, ! Schedule Ruleset Name
  0,                                      ! Rule Order
  {aeec3f70-5392-441e-89a3-314fa27ea3b3}, ! Day Schedule Name
  Yes,                                    ! Apply Sunday
  No,                                     ! Apply Monday
  No,                                     ! Apply Tuesday
  No,                                     ! Apply Wednesday
  No,                                     ! Apply Thursday
  No,                                     ! Apply Friday
  No,                                     ! Apply Saturday
  ,                                       ! Apply Holiday
  DateRange,                              ! Date Specification Type
  1,                                      ! Start Month
  1,                                      ! Start Day
  12,                                     ! End Month
  31;                                     ! End Day

OS:Schedule:Rule,
  {62480a2d-3d0a-4a50-951d-6d3c56e465dc}, ! Handle
  Office Bldg Light Rule 2,               ! Name
  {198547a6-3c1e-4867-a644-a0bd599c309e}, ! Schedule Ruleset Name
  1,                                      ! Rule Order
  {cf4dbbbe-945a-4144-a92e-e1728b5f26d3}, ! Day Schedule Name
  No,                                     ! Apply Sunday
  No,                                     ! Apply Monday
  No,                                     ! Apply Tuesday
  No,                                     ! Apply Wednesday
  No,                                     ! Apply Thursday
  No,                                     ! Apply Friday
  Yes,                                    ! Apply Saturday
  ,                                       ! Apply Holiday
  DateRange,                              ! Date Specification Type
  1,                                      ! Start Month
  1,                                      ! Start Day
  12,                                     ! End Month
  31;                                     ! End Day

OS:Schedule:Day,
  {aeec3f70-5392-441e-89a3-314fa27ea3b3}, ! Handle
  Office Bldg Light Rule 1 Day Schedule,  ! Name
  {19fba8c7-22e9-4110-819e-5b216596fedb}, ! Schedule Type Limits Name
  ,                                       ! Interpolate to Timestep
  24,                                     ! Hour 1
  0,                                      ! Minute 1
  0.050000000000000003;                   ! Value Until Time 1

OS:Schedule:Day,
  {cf4dbbbe-945a-4144-a92e-e1728b5f26d3}, ! Handle
  Office Bldg Light Rule 2 Day Schedule,  ! Name
  {19fba8c7-22e9-4110-819e-5b216596fedb}, ! Schedule Type Limits Name
  ,                                       ! Interpolate to Timestep
  6,                                      ! Hour 1
  0,                                      ! Minute 1
  0.050000000000000003,                   ! Value Until Time 1
  8,                                      ! Hour 2
  0,                                      ! Minute 2
  0.10000000000000001,                    ! Value Until Time 2
  14,                                     ! Hour 3
  0,                                      ! Minute 3
  0.5,                                    ! Value Until Time 3
  17,                                     ! Hour 4
  0,                                      ! Minute 4
  0.14999999999999999,                    ! Value Until Time 4
  24,                                     ! Hour 5
  0,                                      ! Minute 5
  0.050000000000000003;                   ! Value Until Time 5

OS:Schedule:Ruleset,
  {0b008aa9-81f5-41b8-aa54-f944920bbdb9}, ! Handle
  Office Bldg Equip,                      ! Name
  {19fba8c7-22e9-4110-819e-5b216596fedb}, ! Schedule Type Limits Name
  {0d6c95bf-60b5-4764-936d-2cabb743c72f}, ! Default Day Schedule Name
  {6b0a5463-4ea4-415c-b1d6-0f0dd1e575d9}, ! Summer Design Day Schedule Name
  {460a45ea-329f-45f4-8a39-3768b78ff34c}; ! Winter Design Day Schedule Name

OS:Schedule:Day,
  {0d6c95bf-60b5-4764-936d-2cabb743c72f}, ! Handle
  Office Bldg Equip Default Schedule,     ! Name
  {19fba8c7-22e9-4110-819e-5b216596fedb}, ! Schedule Type Limits Name
  ,                                       ! Interpolate to Timestep
  8,                                      !- Hour 1
  0,                                      !- Minute 1
  0.4,                                    !- Value Until Time 1
  12,                                     !- Hour 2
  0,                                      !- Minute 2
  0.9,                                    !- Value Until Time 2
  13,                                     !- Hour 3
  0,                                      !- Minute 3
  0.8,                                    !- Value Until Time 3
  17,                                     !- Hour 4
  0,                                      !- Minute 4
  0.9,                                    !- Value Until Time 4
  18,                                     !- Hour 5
  0,                                      !- Minute 5
  0.8,                                    !- Value Until Time 5
  20,                                     !- Hour 6
  0,                                      !- Minute 6
  0.6,                                    !- Value Until Time 6
  22,                                     !- Hour 7
  0,                                      !- Minute 7
  0.5,                                    !- Value Until Time 7
  24,                                     !- Hour 8
  0,                                      !- Minute 8
  0.4;                                    !- Value Until Time 8

OS:Schedule:Day,
  {6b0a5463-4ea4-415c-b1d6-0f0dd1e575d9}, ! Handle
  Office Bldg Equip Summer Design Day,    ! Name
  {19fba8c7-22e9-4110-819e-5b216596fedb}, ! Schedule Type Limits Name
  ,                                       ! Interpolate to Timestep
  24,                                     ! Hour 1
  0,                                      ! Minute 1
  1;                                      ! Value Until Time 1

OS:Schedule:Day,
  {460a45ea-329f-45f4-8a39-3768b78ff34c}, ! Handle
  Office Bldg Equip Winter Design Day,    ! Name
  {19fba8c7-22e9-4110-819e-5b216596fedb}, ! Schedule Type Limits Name
  ,                                       ! Interpolate to Timestep
  24,                                     ! Hour 1
  0,                                      ! Minute 1
  0;                                      ! Value Until Time 1

OS:Schedule:Rule,
  {fab5ab02-f7ee-422b-adf1-1457f7e989dd}, ! Handle
  Office Bldg Equip Rule 1,               ! Name
  {0b008aa9-81f5-41b8-aa54-f944920bbdb9}, ! Schedule Ruleset Name
  0,                                      ! Rule Order
  {ba4908c6-07b3-4866-a98b-9c9855799e65}, ! Day Schedule Name
  Yes,                                    ! Apply Sunday
  No,                                     ! Apply Monday
  No,                                     ! Apply Tuesday
  No,                                     ! Apply Wednesday
  No,                                     ! Apply Thursday
  No,                                     ! Apply Friday
  No,                                     ! Apply Saturday
  ,                                       ! Apply Holiday
  DateRange,                              ! Date Specification Type
  1,                                      ! Start Month
  1,                                      ! Start Day
  12,                                     ! End Month
  31;                                     ! End Day

OS:Schedule:Rule,
  {7a4903f1-f88b-4c7f-aa3b-5b6e2ae2ccce}, ! Handle
  Office Bldg Equip Rule 2,               ! Name
  {0b008aa9-81f5-41b8-aa54-f944920bbdb9}, ! Schedule Ruleset Name
  1,                                      ! Rule Order
  {8f63474b-6aa9-45cb-8037-770f547e1164}, ! Day Schedule Name
  No,                                     ! Apply Sunday
  No,                                     ! Apply Monday
  No,                                     ! Apply Tuesday
  No,                                     ! Apply Wednesday
  No,                                     ! Apply Thursday
  No,                                     ! Apply Friday
  Yes,                                    ! Apply Saturday
  ,                                       ! Apply Holiday
  DateRange,                              ! Date Specification Type
  1,                                      ! Start Month
  1,                                      ! Start Day
  12,                                     ! End Month
  31;                                     ! End Day

OS:Schedule:Day,
  {ba4908c6-07b3-4866-a98b-9c9855799e65}, ! Handle
  Office Bldg Equip Rule 1 Day Schedule,  ! Name
  {19fba8c7-22e9-4110-819e-5b216596fedb}, ! Schedule Type Limits Name
  ,                                       ! Interpolate to Timestep
  24,                                     ! Hour 1
  0,                                      ! Minute 1
  0.29999999999999999;                    ! Value Until Time 1

OS:Schedule:Day,
  {8f63474b-6aa9-45cb-8037-770f547e1164}, ! Handle
  Office Bldg Equip Rule 2 Day Schedule,  ! Name
  {19fba8c7-22e9-4110-819e-5b216596fedb}, ! Schedule Type Limits Name
  ,                                       ! Interpolate to Timestep
  6,                                      ! Hour 1
  0,                                      ! Minute 1
  0.29999999999999999,                    ! Value Until Time 1
  8,                                      ! Hour 2
  0,                                      ! Minute 2
  0.40000000000000002,                    ! Value Until Time 2
  14,                                     ! Hour 3
  0,                                      ! Minute 3
  0.5,                                    ! Value Until Time 3
  17,                                     ! Hour 4
  0,                                      ! Minute 4
  0.34999999999999998,                    ! Value Until Time 4
  24,                                     ! Hour 5
  0,                                      ! Minute 5
  0.29999999999999999;                    ! Value Until Time 5

OS:Schedule:Ruleset,
  {4284b06d-0dc8-4ea6-b114-20eef83f1f41}, ! Handle
  Office Infil Quarter On,                ! Name
  {19fba8c7-22e9-4110-819e-5b216596fedb}, ! Schedule Type Limits Name
  {39ed2bb9-9784-4b78-ad1a-81734deb76bf}, ! Default Day Schedule Name
  {8987aaa3-2835-4257-96db-702cab4ef503}, ! Summer Design Day Schedule Name
  {e3f11e33-e305-478f-b952-7458901665e5}; ! Winter Design Day Schedule Name

OS:Schedule:Day,
  {39ed2bb9-9784-4b78-ad1a-81734deb76bf}, ! Handle
  Office Infil Quarter On Default Schedule, ! Name
  {19fba8c7-22e9-4110-819e-5b216596fedb}, ! Schedule Type Limits Name
  ,                                       ! Interpolate to Timestep
  6,                                      !- Hour 1
  0,                                      !- Minute 1
  1,                                      !- Value Until Time 1
  22,                                     !- Hour 2
  0,                                      !- Minute 2
  0.25,                                   !- Value Until Time 2
  24,                                     !- Hour 3
  0,                                      !- Minute 3
  1;                                      !- Value Until Time 3

OS:Schedule:Day,
  {8987aaa3-2835-4257-96db-702cab4ef503}, ! Handle
  Office Infil Quarter On Summer Design Day, ! Name
  {19fba8c7-22e9-4110-819e-5b216596fedb}, ! Schedule Type Limits Name
  ,                                       ! Interpolate to Timestep
  6,                                      ! Hour 1
  0,                                      ! Minute 1
  1,                                      ! Value Until Time 1
  22,                                     ! Hour 2
  0,                                      ! Minute 2
  0.25,                                   ! Value Until Time 2
  24,                                     ! Hour 3
  0,                                      ! Minute 3
  1;                                      ! Value Until Time 3

OS:Schedule:Day,
  {e3f11e33-e305-478f-b952-7458901665e5}, ! Handle
  Office Infil Quarter On Winter Design Day, ! Name
  {19fba8c7-22e9-4110-819e-5b216596fedb}, ! Schedule Type Limits Name
  ,                                       ! Interpolate to Timestep
  6,                                      ! Hour 1
  0,                                      ! Minute 1
  1,                                      ! Value Until Time 1
  18,                                     ! Hour 2
  0,                                      ! Minute 2
  0.25,                                   ! Value Until Time 2
  24,                                     ! Hour 3
  0,                                      ! Minute 3
  1;                                      ! Value Until Time 3

OS:Schedule:Rule,
  {6bfe523a-ee44-4d9c-a2f0-7ef1d0d49399}, ! Handle
  Office Infil Quarter On Rule 1,         ! Name
  {4284b06d-0dc8-4ea6-b114-20eef83f1f41}, ! Schedule Ruleset Name
  0,                                      ! Rule Order
  {e73272e0-cf83-4d03-b90b-bd0b7ad13dac}, ! Day Schedule Name
  Yes,                                    ! Apply Sunday
  No,                                     ! Apply Monday
  No,                                     ! Apply Tuesday
  No,                                     ! Apply Wednesday
  No,                                     ! Apply Thursday
  No,                                     ! Apply Friday
  No,                                     ! Apply Saturday
  ,                                       ! Apply Holiday
  DateRange,                              ! Date Specification Type
  1,                                      ! Start Month
  1,                                      ! Start Day
  12,                                     ! End Month
  31;                                     ! End Day

OS:Schedule:Rule,
  {66220050-bdb5-48b9-a02c-e836d297fab7}, ! Handle
  Office Infil Quarter On Rule 2,         ! Name
  {4284b06d-0dc8-4ea6-b114-20eef83f1f41}, ! Schedule Ruleset Name
  1,                                      ! Rule Order
  {655fde68-98ef-4d02-ac01-fe957a4e8ddc}, ! Day Schedule Name
  No,                                     ! Apply Sunday
  No,                                     ! Apply Monday
  No,                                     ! Apply Tuesday
  No,                                     ! Apply Wednesday
  No,                                     ! Apply Thursday
  No,                                     ! Apply Friday
  Yes,                                    ! Apply Saturday
  ,                                       ! Apply Holiday
  DateRange,                              ! Date Specification Type
  1,                                      ! Start Month
  1,                                      ! Start Day
  12,                                     ! End Month
  31;                                     ! End Day

OS:Schedule:Day,
  {e73272e0-cf83-4d03-b90b-bd0b7ad13dac}, ! Handle
  Office Infil Quarter On Rule 1 Day Schedule, ! Name
  {19fba8c7-22e9-4110-819e-5b216596fedb}, ! Schedule Type Limits Name
  ,                                       ! Interpolate to Timestep
  24,                                     ! Hour 1
  0,                                      ! Minute 1
  1;                                      ! Value Until Time 1

OS:Schedule:Day,
  {655fde68-98ef-4d02-ac01-fe957a4e8ddc}, ! Handle
  Office Infil Quarter On Rule 2 Day Schedule, ! Name
  {19fba8c7-22e9-4110-819e-5b216596fedb}, ! Schedule Type Limits Name
  ,                                       ! Interpolate to Timestep
  6,                                      ! Hour 1
  0,                                      ! Minute 1
  1,                                      ! Value Until Time 1
  18,                                     ! Hour 2
  0,                                      ! Minute 2
  0.25,                                   ! Value Until Time 2
  24,                                     ! Hour 3
  0,                                      ! Minute 3
  1;                                      ! Value Until Time 3

OS:ScheduleTypeLimits,
  {19fba8c7-22e9-4110-819e-5b216596fedb}, ! Handle
  Fraction,                               ! Name