
OS:Version,
  {f95a6217-0a27-4a7d-a33e-09ebaf2881e5}, !- Handle
  1.9.0;                                  !- Version Identifier

OS:Facility,
  {dd754546-86c3-420d-9cd5-19f1e39de69c}; !- Handle

OS:Building,
  {93fb7e1a-4c57-460f-8014-1e2a23a8d7d3}, !- Handle
  Building 1,                             !- Name
  ,                                       !- Building Sector Type
  ,                                       !- North Axis {deg}
  ,                                       !- Nominal Floor to Floor Height {m}
  ,                                       !- Space Type Name
  ,                                       !- Default Construction Set Name
  ;                                       !- Default Schedule Set Name

OS:BuildingStory,
  {bbe69c37-f794-44f4-92ac-530e5d7d6989}, !- Handle
  Level 1,                                !- Name
  ,                                       !- Nominal Z Coordinate {m}
  ,                                       !- Nominal Floor to Floor Height {m}
  ,                                       !- Default Construction Set Name
  ,                                       !- Default Schedule Set Name
  ;                                       !- Group Rendering Name

OS:BuildingStory,
  {154fce3f-9693-4e6f-89e6-d1a11c5073af}, !- Handle
  Level 2,                                !- Name
  ,                                       !- Nominal Z Coordinate {m}
  3.9624,                                 !- Nominal Floor to Floor Height {m}
  ,                                       !- Default Construction Set Name
  ,                                       !- Default Schedule Set Name
  ;                                       !- Group Rendering Name

OS:BuildingStory,
  {30a887e1-299f-4c7a-a040-c362db3c3138}, !- Handle
  Level 3,                                !- Name
  ,                                       !- Nominal Z Coordinate {m}
  7.9248,                                 !- Nominal Floor to Floor Height {m}
  ,                                       !- Default Construction Set Name
  ,                                       !- Default Schedule Set Name
  ;                                       !- Group Rendering Name

OS:Space,
  {7aff3de5-cdba-4377-bd83-1aa2bb6a6488}, !- Handle
  sp-2-Space,                             !- Name
  ,                                       !- Space Type Name
  ,                                       !- Default Construction Set Name
  ,                                       !- Default Schedule Set Name
  ,                                       !- Direction of Relative North {deg}
  ,                                       !- X Origin {m}
  ,                                       !- Y Origin {m}
  ,                                       !- Z Origin {m}
  {bbe69c37-f794-44f4-92ac-530e5d7d6989}, !- Building Story Name
  {5e600317-3729-490b-849f-bbb5b5ccf53e}; !- Thermal Zone Name

OS:Surface,
  {ff3cd470-ad51-4332-bc38-75b9b9523993}, !- Handle
  Surface 1,                              !- Name
  Floor,                                  !- Surface Type
  ,                                       !- Construction Name
  {7aff3de5-cdba-4377-bd83-1aa2bb6a6488}, !- Space Name
  Ground,                                 !- Outside Boundary Condition
  ,                                       !- Outside Boundary Condition Object
  NoSun,                                  !- Sun Exposure
  NoWind,                                 !- Wind Exposure
  ,                                       !- View Factor to Ground
  ,                                       !- Number of Vertices
  -12.192, 0, 0,                          !- X,Y,Z Vertex 1 {m}
  -12.192, 4.572, 0,                      !- X,Y,Z Vertex 2 {m}
  0, 4.572, 0,                            !- X,Y,Z Vertex 3 {m}
  0, 0, 0;                                !- X,Y,Z Vertex 4 {m}

OS:Surface,
  {51675862-ff29-47c7-9fd5-2c0455f713df}, !- Handle
  Surface 2,                              !- Name
  Wall,                                   !- Surface Type
  ,                                       !- Construction Name
  {7aff3de5-cdba-4377-bd83-1aa2bb6a6488}, !- Space Name
  Outdoors,                               !- Outside Boundary Condition
  ,                                       !- Outside Boundary Condition Object
  SunExposed,                             !- Sun Exposure
  WindExposed,                            !- Wind Exposure
  ,                                       !- View Factor to Ground
  ,                                       !- Number of Vertices
  -12.192, 0, 0,                          !- X,Y,Z Vertex 1 {m}
  -12.192, 0, 3.9624,                     !- X,Y,Z Vertex 2 {m}
  -12.192, 4.572, 3.9624,                 !- X,Y,Z Vertex 3 {m}
  -12.192, 4.572, 0;                      !- X,Y,Z Vertex 4 {m}

OS:Surface,
  {7df60f5d-242b-4f31-9317-08142c5867c6}, !- Handle
  Surface 3,                              !- Name
  Wall,                                   !- Surface Type
  ,                                       !- Construction Name
  {7aff3de5-cdba-4377-bd83-1aa2bb6a6488}, !- Space Name
  Outdoors,                               !- Outside Boundary Condition
  ,                                       !- Outside Boundary Condition Object
  SunExposed,                             !- Sun Exposure
  WindExposed,                            !- Wind Exposure
  ,                                       !- View Factor to Ground
  ,                                       !- Number of Vertices
  -12.192, 0, 0,                          !- X,Y,Z Vertex 1 {m}
  0, 0, 0,                                !- X,Y,Z Vertex 2 {m}
  0, 0, 3.9624,                           !- X,Y,Z Vertex 3 {m}
  -12.192, 0, 3.9624;                     !- X,Y,Z Vertex 4 {m}

OS:Surface,
  {5de3f5a0-1359-4251-8ca8-4fceb937a192}, !- Handle
  Surface 4,                              !- Name
  Wall,                                   !- Surface Type
  ,                                       !- Construction Name
  {7aff3de5-cdba-4377-bd83-1aa2bb6a6488}, !- Space Name
  Surface,                                !- Outside Boundary Condition
  {fde42895-1d77-41d2-99fa-7b4f001c83d9}, !- Outside Boundary Condition Object
  NoSun,                                  !- Sun Exposure
  NoWind,                                 !- Wind Exposure
  ,                                       !- View Factor to Ground
  ,                                       !- Number of Vertices
  0, 0, 0,                                !- X,Y,Z Vertex 1 {m}
  0, 4.572, 0,                            !- X,Y,Z Vertex 2 {m}
  0, 4.572, 3.9624,                       !- X,Y,Z Vertex 3 {m}
  0, 0, 3.9624;                           !- X,Y,Z Vertex 4 {m}

OS:Surface,
  {d5978513-9127-46a2-bdee-8963a3cab9c4}, !- Handle
  Surface 5,                              !- Name
  Wall,                                   !- Surface Type
  ,                                       !- Construction Name
  {7aff3de5-cdba-4377-bd83-1aa2bb6a6488}, !- Space Name
  Surface,                                !- Outside Boundary Condition
  {3eb52828-d202-46b0-aece-b434d9f782fd}, !- Outside Boundary Condition Object
  NoSun,                                  !- Sun Exposure
  NoWind,                                 !- Wind Exposure
  ,                                       !- View Factor to Ground
  ,                                       !- Number of Vertices
  0, 4.572, 0,                            !- X,Y,Z Vertex 1 {m}
  -12.192, 4.572, 0,                      !- X,Y,Z Vertex 2 {m}
  -12.192, 4.572, 3.9624,                 !- X,Y,Z Vertex 3 {m}
  0, 4.572, 3.9624;                       !- X,Y,Z Vertex 4 {m}

OS:Surface,
  {022e045a-e845-49a0-bc66-f8a63e70d30d}, !- Handle
  Surface 6,                              !- Name
  RoofCeiling,                            !- Surface Type
  ,                                       !- Construction Name
  {7aff3de5-cdba-4377-bd83-1aa2bb6a6488}, !- Space Name
  Surface,                                !- Outside Boundary Condition
  {384d1499-cb33-475f-8512-99a11d14607b}, !- Outside Boundary Condition Object
  NoSun,                                  !- Sun Exposure
  NoWind,                                 !- Wind Exposure
  ,                                       !- View Factor to Ground
  ,                                       !- Number of Vertices
  0, 0, 3.9624,                           !- X,Y,Z Vertex 1 {m}
  0, 4.572, 3.9624,                       !- X,Y,Z Vertex 2 {m}
  -12.192, 4.572, 3.9624,                 !- X,Y,Z Vertex 3 {m}
  -12.192, 0, 3.9624;                     !- X,Y,Z Vertex 4 {m}

OS:Space,
  {36e14bce-e0ee-4fb1-a3d4-1defd7ee6419}, !- Handle
  sp-3-Space,                             !- Name
  ,                                       !- Space Type Name
  ,                                       !- Default Construction Set Name
  ,                                       !- Default Schedule Set Name
  ,                                       !- Direction of Relative North {deg}
  ,                                       !- X Origin {m}
  ,                                       !- Y Origin {m}
  ,                                       !- Z Origin {m}
  {bbe69c37-f794-44f4-92ac-530e5d7d6989}, !- Building Story Name
  {8173454f-3a6e-4dbc-9d8f-0d9f053aa788}; !- Thermal Zone Name

OS:Surface,
  {54175a5d-044f-4666-b548-adf043e3d520}, !- Handle
  Surface 7,                              !- Name
  Floor,                                  !- Surface Type
  ,                                       !- Construction Name
  {36e14bce-e0ee-4fb1-a3d4-1defd7ee6419}, !- Space Name
  Ground,                                 !- Outside Boundary Condition
  ,                                       !- Outside Boundary Condition Object
  NoSun,                                  !- Sun Exposure
  NoWind,                                 !- Wind Exposure
  ,                                       !- View Factor to Ground
  ,                                       !- Number of Vertices
  -12.192, 4.572, 0,                      !- X,Y,Z Vertex 1 {m}
  -12.192, 15.24, 0,                      !- X,Y,Z Vertex 2 {m}
  0, 15.24, 0,                            !- X,Y,Z Vertex 3 {m}
  0, 4.572, 0;                            !- X,Y,Z Vertex 4 {m}

OS:Surface,
  {a4fe183b-37e3-4d22-8918-15aaede3549d}, !- Handle
  Surface 8,                              !- Name
  Wall,                                   !- Surface Type
  ,                                       !- Construction Name
  {36e14bce-e0ee-4fb1-a3d4-1defd7ee6419}, !- Space Name
  Outdoors,                               !- Outside Boundary Condition
  ,                                       !- Outside Boundary Condition Object
  SunExposed,                             !- Sun Exposure
  WindExposed,                            !- Wind Exposure
  ,                                       !- View Factor to Ground
  ,                                       !- Number of Vertices
  -12.192, 4.572, 0,                      !- X,Y,Z Vertex 1 {m}
  -12.192, 4.572, 3.9624,                 !- X,Y,Z Vertex 2 {m}
  -12.192, 15.24, 3.9624,                 !- X,Y,Z Vertex 3 {m}
  -12.192, 15.24, 0;                      !- X,Y,Z Vertex 4 {m}

OS:Surface,
  {3eb52828-d202-46b0-aece-b434d9f782fd}, !- Handle
  Surface 9,                              !- Name
  Wall,                                   !- Surface Type
  ,                                       !- Construction Name
  {36e14bce-e0ee-4fb1-a3d4-1defd7ee6419}, !- Space Name
  Surface,                                !- Outside Boundary Condition
  {d5978513-9127-46a2-bdee-8963a3cab9c4}, !- Outside Boundary Condition Object
  NoSun,                                  !- Sun Exposure
  NoWind,                                 !- Wind Exposure
  ,                                       !- View Factor to Ground
  ,                                       !- Number of Vertices
  -12.192, 4.572, 0,                      !- X,Y,Z Vertex 1 {m}
  0, 4.572, 0,                            !- X,Y,Z Vertex 2 {m}
  0, 4.572, 3.9624,                       !- X,Y,Z Vertex 3 {m}
  -12.192, 4.572, 3.9624;                 !- X,Y,Z Vertex 4 {m}

OS:Surface,
  {1a6c985b-a04a-4ad2-af99-3ca6bcef8a72}, !- Handle
  Surface 10,                             !- Name
  Wall,                                   !- Surface Type
  ,                                       !- Construction Name
  {36e14bce-e0ee-4fb1-a3d4-1defd7ee6419}, !- Space Name
  Surface,                                !- Outside Boundary Condition
  {8cc83e75-835a-4aa0-b6a3-bd476689f570}, !- Outside Boundary Condition Object
  NoSun,                                  !- Sun Exposure
  NoWind,                                 !- Wind Exposure
  ,                                       !- View Factor to Ground
  ,                                       !- Number of Vertices
  0, 4.572, 0,                            !- X,Y,Z Vertex 1 {m}
  0, 15.24, 0,                            !- X,Y,Z Vertex 2 {m}
  0, 15.24, 3.9624,                       !- X,Y,Z Vertex 3 {m}
  0, 4.572, 3.9624;                       !- X,Y,Z Vertex 4 {m}

OS:Surface,
  {2d89aa4d-cee6-4739-aed1-8511a7409b05}, !- Handle
  Surface 11,                             !- Name
  Wall,                                   !- Surface Type
  ,                                       !- Construction Name
  {36e14bce-e0ee-4fb1-a3d4-1defd7ee6419}, !- Space Name
  Outdoors,                               !- Outside Boundary Condition
  ,                                       !- Outside Boundary Condition Object
  SunExposed,                             !- Sun Exposure
  WindExposed,                            !- Wind Exposure
  ,                                       !- View Factor to Ground
  ,                                       !- Number of Vertices
  0, 15.24, 0,                            !- X,Y,Z Vertex 1 {m}
  -12.192, 15.24, 0,                      !- X,Y,Z Vertex 2 {m}
  -12.192, 15.24, 3.9624,                 !- X,Y,Z Vertex 3 {m}
  0, 15.24, 3.9624;                       !- X,Y,Z Vertex 4 {m}

OS:Surface,
  {ed8e2191-6f2d-4a66-85b8-d58f04db157e}, !- Handle
  Surface 12,                             !- Name
  RoofCeiling,                            !- Surface Type
  ,                                       !- Construction Name
  {36e14bce-e0ee-4fb1-a3d4-1defd7ee6419}, !- Space Name
  Surface,                                !- Outside Boundary Condition
  {4d20e077-0bf5-4396-8363-13b3ef8f9b49}, !- Outside Boundary Condition Object
  NoSun,                                  !- Sun Exposure
  NoWind,                                 !- Wind Exposure
  ,                                       !- View Factor to Ground
  ,                                       !- Number of Vertices
  0, 10.668, 3.9624,                      !- X,Y,Z Vertex 1 {m}
  0, 15.24, 3.9624,                       !- X,Y,Z Vertex 2 {m}
  -12.192, 15.24, 3.9624,                 !- X,Y,Z Vertex 3 {m}
  -12.192, 10.668, 3.9624;                !- X,Y,Z Vertex 4 {m}

OS:Space,
  {deac32f2-2cc6-4e34-ada8-658804243c6c}, !- Handle
  sp-5-Space,                             !- Name
  ,                                       !- Space Type Name
  ,                                       !- Default Construction Set Name
  ,                                       !- Default Schedule Set Name
  ,                                       !- Direction of Relative North {deg}
  ,                                       !- X Origin {m}
  ,                                       !- Y Origin {m}
  ,                                       !- Z Origin {m}
  {154fce3f-9693-4e6f-89e6-d1a11c5073af}, !- Building Story Name
  {a3776b72-6d6e-4159-9e12-94142d2417f3}; !- Thermal Zone Name

OS:Surface,
  {384d1499-cb33-475f-8512-99a11d14607b}, !- Handle
  Surface 13,                             !- Name
  Floor,                                  !- Surface Type
  ,                                       !- Construction Name
  {deac32f2-2cc6-4e34-ada8-658804243c6c}, !- Space Name
  Surface,                                !- Outside Boundary Condition
  {022e045a-e845-49a0-bc66-f8a63e70d30d}, !- Outside Boundary Condition Object
  NoSun,                                  !- Sun Exposure
  NoWind,                                 !- Wind Exposure
  ,                                       !- View Factor to Ground
  ,                                       !- Number of Vertices
  0, 4.572, 3.9624,                       !- X,Y,Z Vertex 1 {m}
  0, 0, 3.9624,                           !- X,Y,Z Vertex 2 {m}
  -12.192, 0, 3.9624,                     !- X,Y,Z Vertex 3 {m}
  -12.192, 4.572, 3.9624;                 !- X,Y,Z Vertex 4 {m}

OS:Surface,
  {945d594a-0ee7-4ef5-8399-3e29c04c4309}, !- Handle
  Surface 14,                             !- Name
  Wall,                                   !- Surface Type
  ,                                       !- Construction Name
  {deac32f2-2cc6-4e34-ada8-658804243c6c}, !- Space Name
  Outdoors,                               !- Outside Boundary Condition
  ,                                       !- Outside Boundary Condition Object
  SunExposed,                             !- Sun Exposure
  WindExposed,                            !- Wind Exposure
  ,                                       !- View Factor to Ground
  ,                                       !- Number of Vertices
  -12.192, 0, 3.9624,                     !- X,Y,Z Vertex 1 {m}
  -12.192, 0, 7.9248,                     !- X,Y,Z Vertex 2 {m}
  -12.192, 10.668, 7.9248,                !- X,Y,Z Vertex 3 {m}
  -12.192, 10.668, 3.9624;                !- X,Y,Z Vertex 4 {m}

OS:Surface,
  {6c754f8b-9d6f-493c-aabb-2d0e08dce8d6}, !- Handle
  Surface 15,                             !- Name
  Wall,                                   !- Surface Type
  ,                                       !- Construction Name
  {deac32f2-2cc6-4e34-ada8-658804243c6c}, !- Space Name
  Outdoors,                               !- Outside Boundary Condition
  ,                                       !- Outside Boundary Condition Object
  SunExposed,                             !- Sun Exposure
  WindExposed,                            !- Wind Exposure
  ,                                       !- View Factor to Ground
  ,                                       !- Number of Vertices
  -12.192, 0, 3.9624,                     !- X,Y,Z Vertex 1 {m}
  0, 0, 3.9624,                           !- X,Y,Z Vertex 2 {m}
  0, 0, 7.9248,                           !- X,Y,Z Vertex 3 {m}
  -12.192, 0, 7.9248;                     !- X,Y,Z Vertex 4 {m}

OS:Surface,
  {d1f15039-35e5-4a31-b6ca-be9f4a4a5b49}, !- Handle
  Surface 16,                             !- Name
  Wall,                                   !- Surface Type
  ,                                       !- Construction Name
  {deac32f2-2cc6-4e34-ada8-658804243c6c}, !- Space Name
  Surface,                                !- Outside Boundary Condition
  {8544880a-92b7-42f5-9f31-7eb9f0607cc8}, !- Outside Boundary Condition Object
  NoSun,                                  !- Sun Exposure
  NoWind,                                 !- Wind Exposure
  ,                                       !- View Factor to Ground
  ,                                       !- Number of Vertices
  0, 0, 3.9624,                           !- X,Y,Z Vertex 1 {m}
  0, 10.668, 3.9624,                      !- X,Y,Z Vertex 2 {m}
  0, 10.668, 7.9248,                      !- X,Y,Z Vertex 3 {m}
  0, 0, 7.9248;                           !- X,Y,Z Vertex 4 {m}

OS:Surface,
  {e25cd1dc-3859-426a-9552-bac64f5235d6}, !- Handle
  Surface 17,                             !- Name
  Wall,                                   !- Surface Type
  ,                                       !- Construction Name
  {deac32f2-2cc6-4e34-ada8-658804243c6c}, !- Space Name
  Surface,                                !- Outside Boundary Condition
  {fa2d2a7a-23d2-4ff2-b7a4-58ca6bfa188d}, !- Outside Boundary Condition Object
  NoSun,                                  !- Sun Exposure
  NoWind,                                 !- Wind Exposure
  ,                                       !- View Factor to Ground
  ,                                       !- Number of Vertices
  0, 10.668, 3.9624,                      !- X,Y,Z Vertex 1 {m}
  -12.192, 10.668, 3.9624,                !- X,Y,Z Vertex 2 {m}
  -12.192, 10.668, 7.9248,                !- X,Y,Z Vertex 3 {m}
  0, 10.668, 7.9248;                      !- X,Y,Z Vertex 4 {m}

OS:Surface,
  {f31c8b56-9ba6-4811-9115-addbef4ac2ea}, !- Handle
  Surface 18,                             !- Name
  RoofCeiling,                            !- Surface Type
  ,                                       !- Construction Name
  {deac32f2-2cc6-4e34-ada8-658804243c6c}, !- Space Name
  Outdoors,                               !- Outside Boundary Condition
  ,                                       !- Outside Boundary Condition Object
  SunExposed,                             !- Sun Exposure
  WindExposed,                            !- Wind Exposure
  ,                                       !- View Factor to Ground
  ,                                       !- Number of Vertices
  -12.192, 0, 7.9248,                     !- X,Y,Z Vertex 1 {m}
  0, 0, 7.9248,                           !- X,Y,Z Vertex 2 {m}
  0, 10.668, 7.9248,                      !- X,Y,Z Vertex 3 {m}
  -12.192, 10.668, 7.9248;                !- X,Y,Z Vertex 4 {m}

OS:Space,
  {7f7c1df8-6d7c-41e9-bb8a-3b5b98c692e2}, !- Handle
  sp-6-Space,                             !- Name
  ,                                       !- Space Type Name
  ,                                       !- Default Construction Set Name
  ,                                       !- Default Schedule Set Name
  ,                                       !- Direction of Relative North {deg}
  ,                                       !- X Origin {m}
  ,                                       !- Y Origin {m}
  ,                                       !- Z Origin {m}
  {154fce3f-9693-4e6f-89e6-d1a11c5073af}, !- Building Story Name
  {6026a6d3-0a1e-4626-b9f1-8fe308f53958}; !- Thermal Zone Name

OS:Surface,
  {4d20e077-0bf5-4396-8363-13b3ef8f9b49}, !- Handle
  Surface 19,                             !- Name
  Floor,                                  !- Surface Type
  ,                                       !- Construction Name
  {7f7c1df8-6d7c-41e9-bb8a-3b5b98c692e2}, !- Space Name
  Surface,                                !- Outside Boundary Condition
  {ed8e2191-6f2d-4a66-85b8-d58f04db157e}, !- Outside Boundary Condition Object
  NoSun,                                  !- Sun Exposure
  NoWind,                                 !- Wind Exposure
  ,                                       !- View Factor to Ground
  ,                                       !- Number of Vertices
  0, 15.24, 3.9624,                       !- X,Y,Z Vertex 1 {m}
  0, 10.668, 3.9624,                      !- X,Y,Z Vertex 2 {m}
  -12.192, 10.668, 3.9624,                !- X,Y,Z Vertex 3 {m}
  -12.192, 15.24, 3.9624;                 !- X,Y,Z Vertex 4 {m}

OS:Surface,
  {3dee08bc-509a-49aa-bf91-429db810fb7a}, !- Handle
  Surface 20,                             !- Name
  Wall,                                   !- Surface Type
  ,                                       !- Construction Name
  {7f7c1df8-6d7c-41e9-bb8a-3b5b98c692e2}, !- Space Name
  Outdoors,                               !- Outside Boundary Condition
  ,                                       !- Outside Boundary Condition Object
  SunExposed,                             !- Sun Exposure
  WindExposed,                            !- Wind Exposure
  ,                                       !- View Factor to Ground
  ,                                       !- Number of Vertices
  -12.192, 10.668, 3.9624,                !- X,Y,Z Vertex 1 {m}
  -12.192, 10.668, 7.9248,                !- X,Y,Z Vertex 2 {m}
  -12.192, 15.24, 7.9248,                 !- X,Y,Z Vertex 3 {m}
  -12.192, 15.24, 3.9624;                 !- X,Y,Z Vertex 4 {m}

OS:Surface,
  {fa2d2a7a-23d2-4ff2-b7a4-58ca6bfa188d}, !- Handle
  Surface 21,                             !- Name
  Wall,                                   !- Surface Type
  ,                                       !- Construction Name
  {7f7c1df8-6d7c-41e9-bb8a-3b5b98c692e2}, !- Space Name
  Surface,                                !- Outside Boundary Condition
  {e25cd1dc-3859-426a-9552-bac64f5235d6}, !- Outside Boundary Condition Object
  NoSun,                                  !- Sun Exposure
  NoWind,                                 !- Wind Exposure
  ,                                       !- View Factor to Ground
  ,                                       !- Number of Vertices
  -12.192, 10.668, 3.9624,                !- X,Y,Z Vertex 1 {m}
  0, 10.668, 3.9624,                      !- X,Y,Z Vertex 2 {m}
  0, 10.668, 7.9248,                      !- X,Y,Z Vertex 3 {m}
  -12.192, 10.668, 7.9248;                !- X,Y,Z Vertex 4 {m}

OS:Surface,
  {5c52ca40-51c7-41a7-beda-700f8207f4ef}, !- Handle
  Surface 22,                             !- Name
  Wall,                                   !- Surface Type
  ,                                       !- Construction Name
  {7f7c1df8-6d7c-41e9-bb8a-3b5b98c692e2}, !- Space Name
  Surface,                                !- Outside Boundary Condition
  {e6300c32-b214-4a9f-91dd-8dab28d04c0d}, !- Outside Boundary Condition Object
  NoSun,                                  !- Sun Exposure
  NoWind,                                 !- Wind Exposure
  ,                                       !- View Factor to Ground
  ,                                       !- Number of Vertices
  0, 10.668, 3.9624,                      !- X,Y,Z Vertex 1 {m}
  0, 15.24, 3.9624,                       !- X,Y,Z Vertex 2 {m}
  0, 15.24, 7.9248,                       !- X,Y,Z Vertex 3 {m}
  0, 10.668, 7.9248;                      !- X,Y,Z Vertex 4 {m}

OS:Surface,
  {1321460b-23f1-4503-98c4-f246ce682395}, !- Handle
  Surface 23,                             !- Name
  Wall,                                   !- Surface Type
  ,                                       !- Construction Name
  {7f7c1df8-6d7c-41e9-bb8a-3b5b98c692e2}, !- Space Name
  Outdoors,                               !- Outside Boundary Condition
  ,                                       !- Outside Boundary Condition Object
  SunExposed,                             !- Sun Exposure
  WindExposed,                            !- Wind Exposure
  ,                                       !- View Factor to Ground
  ,                                       !- Number of Vertices
  0, 15.24, 3.9624,                       !- X,Y,Z Vertex 1 {m}
  -12.192, 15.24, 3.9624,                 !- X,Y,Z Vertex 2 {m}
  -12.192, 15.24, 7.9248,                 !- X,Y,Z Vertex 3 {m}
  0, 15.24, 7.9248;                       !- X,Y,Z Vertex 4 {m}

OS:Surface,
  {72545061-9a01-498d-b010-7f0dc9e4fa30}, !- Handle
  Surface 24,                             !- Name
  RoofCeiling,                            !- Surface Type
  ,                                       !- Construction Name
  {7f7c1df8-6d7c-41e9-bb8a-3b5b98c692e2}, !- Space Name
  Outdoors,                               !- Outside Boundary Condition
  ,                                       !- Outside Boundary Condition Object
  SunExposed,                             !- Sun Exposure
  WindExposed,                            !- Wind Exposure
  ,                                       !- View Factor to Ground
  ,                                       !- Number of Vertices
  -12.192, 10.668, 7.9248,                !- X,Y,Z Vertex 1 {m}
  0, 10.668, 7.9248,                      !- X,Y,Z Vertex 2 {m}
  0, 15.24, 7.9248,                       !- X,Y,Z Vertex 3 {m}
  -12.192, 15.24, 7.9248;                 !- X,Y,Z Vertex 4 {m}

OS:Space,
  {5dc685b9-18b7-46aa-9afc-5ba1cab3f992}, !- Handle
  sp-4-Space,                             !- Name
  ,                                       !- Space Type Name
  ,                                       !- Default Construction Set Name
  ,                                       !- Default Schedule Set Name
  ,                                       !- Direction of Relative North {deg}
  ,                                       !- X Origin {m}
  ,                                       !- Y Origin {m}
  ,                                       !- Z Origin {m}
  {154fce3f-9693-4e6f-89e6-d1a11c5073af}, !- Building Story Name
  {67f26df0-b78c-4243-ba91-56d291917ee1}; !- Thermal Zone Name

OS:Surface,
  {73c97dd6-11fd-4e41-b611-c811650c19db}, !- Handle
  Surface 25,                             !- Name
  Floor,                                  !- Surface Type
  ,                                       !- Construction Name
  {5dc685b9-18b7-46aa-9afc-5ba1cab3f992}, !- Space Name
  Ground,                                 !- Outside Boundary Condition
  ,                                       !- Outside Boundary Condition Object
  NoSun,                                  !- Sun Exposure
  NoWind,                                 !- Wind Exposure
  ,                                       !- View Factor to Ground
  ,                                       !- Number of Vertices
  0, 0, 0,                                !- X,Y,Z Vertex 1 {m}
  0, 15.24, 0,                            !- X,Y,Z Vertex 2 {m}
  15.24, 15.24, 0,                        !- X,Y,Z Vertex 3 {m}
  15.24, 0, 0;                            !- X,Y,Z Vertex 4 {m}

OS:Surface,
  {fde42895-1d77-41d2-99fa-7b4f001c83d9}, !- Handle
  Surface 26,                             !- Name
  Wall,                                   !- Surface Type
  ,                                       !- Construction Name
  {5dc685b9-18b7-46aa-9afc-5ba1cab3f992}, !- Space Name
  Surface,                                !- Outside Boundary Condition
  {5de3f5a0-1359-4251-8ca8-4fceb937a192}, !- Outside Boundary Condition Object
  NoSun,                                  !- Sun Exposure
  NoWind,                                 !- Wind Exposure
  ,                                       !- View Factor to Ground