
OS:Version,
  {f00ebfe2-7e6c-4a20-9e19-ff77bd8ebfd9}, !- Handle
  1.10.0;                                 !- Version Identifier

OS:Facility,
  {51f59850-a3c0-443d-b0fe-575f229c1df6}; !- Handle

OS:Building,
  {dde46fc5-18f2-43a5-acdc-29f19caf3a3b}, !- Handle
  Building 1,                             !- Name
  ,                                       !- Building Sector Type
  ,                                       !- North Axis {deg}
  ,                                       !- Nominal Floor to Floor Height {m}
  ,                                       !- Space Type Name
  ,                                       !- Default Construction Set Name
  ;                                       !- Default Schedule Set Name

OS:BuildingStory,
  {a1e83285-f35d-44a8-8dea-c3ddfccb0607}, !- Handle
  Level 1,                                !- Name
  ,                                       !- Nominal Z Coordinate {m}
  ,                                       !- Nominal Floor to Floor Height {m}
  ,                                       !- Default Construction Set Name
  ,                                       !- Default Schedule Set Name
  ;                                       !- Group Rendering Name

OS:BuildingStory,
  {2bccc91e-f09f-401d-af04-6dae4a6f6fe3}, !- Handle
  Level 2,                                !- Name
  ,                                       !- Nominal Z Coordinate {m}
  3.9624,                                 !- Nominal Floor to Floor Height {m}
  ,                                       !- Default Construction Set Name
  ,                                       !- Default Schedule Set Name
  ;                                       !- Group Rendering Name

OS:BuildingStory,
  {f528e44e-de05-4b61-8ae7-14688ae8f746}, !- Handle
  Level 3,                                !- Name
  ,                                       !- Nominal Z Coordinate {m}
  7.9248,                                 !- Nominal Floor to Floor Height {m}
  ,                                       !- Default Construction Set Name
  ,                                       !- Default Schedule Set Name
  ;                                       !- Group Rendering Name

OS:Space,
  {5cb9f419-2a63-4442-aa7b-74add2da3706}, !- Handle
  sp-2-Space,                             !- Name
  ,                                       !- Space Type Name
  ,                                       !- Default Construction Set Name
  ,                                       !- Default Schedule Set Name
  ,                                       !- Direction of Relative North {deg}
  ,                                       !- X Origin {m}
  ,                                       !- Y Origin {m}
  ,                                       !- Z Origin {m}
  {a1e83285-f35d-44a8-8dea-c3ddfccb0607}, !- Building Story Name
  {5a84053d-9e4d-47d0-be4c-1395fbc83e28}; !- Thermal Zone Name

OS:Surface,
  {0b6e3059-6686-4d6f-a25a-c17740586ed9}, !- Handle
  Surface 1,                              !- Name
  Floor,                                  !- Surface Type
  ,                                       !- Construction Name
  {5cb9f419-2a63-4442-aa7b-74add2da3706}, !- Space Name
  Ground,                                 !- Outside Boundary Condition
  ,                                       !- Outside Boundary Condition Object
  NoSun,                                  !- Sun Exposure
  NoWind,                                 !- Wind Exposure
  ,                                       !- View Factor to Ground
  ,                                       !- Number of Vertices
  -12.192, 0, 0,                          !- X,Y,Z Vertex 1 {m}
  -12.192, 4.572, 0,                      !- X,Y,Z Vertex 2 {m}
  0, 4.572, 0,                            !- X,Y,Z Vertex 3 {m}
  0, 0, 0;                                !- X,Y,Z Vertex 4 {m}

OS:Surface,
  {a34ca87b-cf21-41f8-b2ca-10980719a332}, !- Handle
  Surface 2,                              !- Name
  Wall,                                   !- Surface Type
  ,                                       !- Construction Name
  {5cb9f419-2a63-4442-aa7b-74add2da3706}, !- Space Name
  Outdoors,                               !- Outside Boundary Condition
  ,                                       !- Outside Boundary Condition Object
  SunExposed,                             !- Sun Exposure
  WindExposed,                            !- Wind Exposure
  ,                                       !- View Factor to Ground
  ,                                       !- Number of Vertices
  -12.192, 0, 0,                          !- X,Y,Z Vertex 1 {m}
  -12.192, 0, 3.9624,                     !- X,Y,Z Vertex 2 {m}
  -12.192, 4.572, 3.9624,                 !- X,Y,Z Vertex 3 {m}
  -12.192, 4.572, 0;                      !- X,Y,Z Vertex 4 {m}

OS:Surface,
  {af36edb1-923e-49b2-9b4a-8398c7792345}, !- Handle
  Surface 3,                              !- Name
  Wall,                                   !- Surface Type
  ,                                       !- Construction Name
  {5cb9f419-2a63-4442-aa7b-74add2da3706}, !- Space Name
  Outdoors,                               !- Outside Boundary Condition
  ,                                       !- Outside Boundary Condition Object
  SunExposed,                             !- Sun Exposure
  WindExposed,                            !- Wind Exposure
  ,                                       !- View Factor to Ground
  ,                                       !- Number of Vertices
  -12.192, 0, 0,                          !- X,Y,Z Vertex 1 {m}
  0, 0, 0,                                !- X,Y,Z Vertex 2 {m}
  0, 0, 3.9624,                           !- X,Y,Z Vertex 3 {m}
  -12.192, 0, 3.9624;                     !- X,Y,Z Vertex 4 {m}

OS:Surface,
  {2c152182-1c6f-4e7f-be2e-7875626fc85f}, !- Handle
  Surface 4,                              !- Name
  Wall,                                   !- Surface Type
  ,                                       !- Construction Name
  {5cb9f419-2a63-4442-aa7b-74add2da3706}, !- Space Name
  Surface,                                !- Outside Boundary Condition
  {b597f7f9-f526-4c52-94e6-1f9f0f67b632}, !- Outside Boundary Condition Object
  NoSun,                                  !- Sun Exposure
  NoWind,                                 !- Wind Exposure
  ,                                       !- View Factor to Ground
  ,                                       !- Number of Vertices
  0, 0, 0,                                !- X,Y,Z Vertex 1 {m}
  0, 4.572, 0,                            !- X,Y,Z Vertex 2 {m}
  0, 4.572, 3.9624,                       !- X,Y,Z Vertex 3 {m}
  0, 0, 3.9624;                           !- X,Y,Z Vertex 4 {m}

OS:Surface,
  {3fc9dfad-7931-47ab-8a46-bd469f28fa45}, !- Handle
  Surface 5,                              !- Name
  Wall,                                   !- Surface Type
  ,                                       !- Construction Name
  {5cb9f419-2a63-4442-aa7b-74add2da3706}, !- Space Name
  Surface,                                !- Outside Boundary Condition
  {d62270b5-316c-4e32-882c-656287cadade}, !- Outside Boundary Condition Object
  NoSun,                                  !- Sun Exposure
  NoWind,                                 !- Wind Exposure
  ,                                       !- View Factor to Ground
  ,                                       !- Number of Vertices
  0, 4.572, 0,                            !- X,Y,Z Vertex 1 {m}
  -12.192, 4.572, 0,                      !- X,Y,Z Vertex 2 {m}
  -12.192, 4.572, 3.9624,                 !- X,Y,Z Vertex 3 {m}
  0, 4.572, 3.9624;                       !- X,Y,Z Vertex 4 {m}

OS:Surface,
  {4797406a-4327-4b09-8858-8f712592625d}, !- Handle
  Surface 6,                              !- Name
  RoofCeiling,                            !- Surface Type
  ,                                       !- Construction Name
  {5cb9f419-2a63-4442-aa7b-74add2da3706}, !- Space Name
  Surface,                                !- Outside Boundary Condition
  {e1eb1d38-ef4f-49ff-ac6f-6291ceb1e769}, !- Outside Boundary Condition Object
  NoSun,                                  !- Sun Exposure
  NoWind,                                 !- Wind Exposure
  ,                                       !- View Factor to Ground
  ,                                       !- Number of Vertices
  0, 0, 3.9624,                           !- X,Y,Z Vertex 1 {m}
  0, 4.572, 3.9624,                       !- X,Y,Z Vertex 2 {m}
  -12.192, 4.572, 3.9624,                 !- X,Y,Z Vertex 3 {m}
  -12.192, 0, 3.9624;                     !- X,Y,Z Vertex 4 {m}

OS:Space,
  {380d20cf-6372-4246-9d32-7d9ff65bb33f}, !- Handle
  sp-3-Space,                             !- Name
  ,                                       !- Space Type Name
  ,                                       !- Default Construction Set Name
  ,                                       !- Default Schedule Set Name
  ,                                       !- Direction of Relative North {deg}
  ,                                       !- X Origin {m}
  ,                                       !- Y Origin {m}
  ,                                       !- Z Origin {m}
  {a1e83285-f35d-44a8-8dea-c3ddfccb0607}, !- Building Story Name
  {4d9c8cbc-a7be-43c4-a906-2db9e8944fd8}; !- Thermal Zone Name

OS:Surface,
  {aae51cbb-9fe3-4173-bd5e-1ab9d41e00cd}, !- Handle
  Surface 7,                              !- Name
  Floor,                                  !- Surface Type
  ,                                       !- Construction Name
  {380d20cf-6372-4246-9d32-7d9ff65bb33f}, !- Space Name
  Ground,                                 !- Outside Boundary Condition
  ,                                       !- Outside Boundary Condition Object
  NoSun,                                  !- Sun Exposure
  NoWind,                                 !- Wind Exposure
  ,                                       !- View Factor to Ground
  ,                                       !- Number of Vertices
  -12.192, 4.572, 0,                      !- X,Y,Z Vertex 1 {m}
  -12.192, 15.24, 0,                      !- X,Y,Z Vertex 2 {m}
  0, 15.24, 0,                            !- X,Y,Z Vertex 3 {m}
  0, 4.572, 0;                            !- X,Y,Z Vertex 4 {m}

OS:Surface,
  {3f82d5d1-81b9-43f0-81b3-c1a22b4d1fed}, !- Handle
  Surface 8,                              !- Name
  Wall,                                   !- Surface Type
  ,                                       !- Construction Name
  {380d20cf-6372-4246-9d32-7d9ff65bb33f}, !- Space Name
  Outdoors,                               !- Outside Boundary Condition
  ,                                       !- Outside Boundary Condition Object
  SunExposed,                             !- Sun Exposure
  WindExposed,                            !- Wind Exposure
  ,                                       !- View Factor to Ground
  ,                                       !- Number of Vertices
  -12.192, 4.572, 0,                      !- X,Y,Z Vertex 1 {m}
  -12.192, 4.572, 3.9624,                 !- X,Y,Z Vertex 2 {m}
  -12.192, 15.24, 3.9624,                 !- X,Y,Z Vertex 3 {m}
  -12.192, 15.24, 0;                      !- X,Y,Z Vertex 4 {m}

OS:Surface,
  {d62270b5-316c-4e32-882c-656287cadade}, !- Handle
  Surface 9,                              !- Name
  Wall,                                   !- Surface Type
  ,                                       !- Construction Name
  {380d20cf-6372-4246-9d32-7d9ff65bb33f}, !- Space Name
  Surface,                                !- Outside Boundary Condition
  {3fc9dfad-7931-47ab-8a46-bd469f28fa45}, !- Outside Boundary Condition Object
  NoSun,                                  !- Sun Exposure
  NoWind,                                 !- Wind Exposure
  ,                                       !- View Factor to Ground
  ,                                       !- Number of Vertices
  -12.192, 4.572, 0,                      !- X,Y,Z Vertex 1 {m}
  0, 4.572, 0,                            !- X,Y,Z Vertex 2 {m}
  0, 4.572, 3.9624,                       !- X,Y,Z Vertex 3 {m}
  -12.192, 4.572, 3.9624;                 !- X,Y,Z Vertex 4 {m}

OS:Surface,
  {f12107ee-e401-41ea-861d-f014dfb84ba2}, !- Handle
  Surface 10,                             !- Name
  Wall,                                   !- Surface Type
  ,                                       !- Construction Name
  {380d20cf-6372-4246-9d32-7d9ff65bb33f}, !- Space Name
  Surface,                                !- Outside Boundary Condition
  {82aafa10-677c-4f20-9c28-62417eeac78b}, !- Outside Boundary Condition Object
  NoSun,                                  !- Sun Exposure
  NoWind,                                 !- Wind Exposure
  ,                                       !- View Factor to Ground
  ,                                       !- Number of Vertices
  0, 4.572, 0,                            !- X,Y,Z Vertex 1 {m}
  0, 15.24, 0,                            !- X,Y,Z Vertex 2 {m}
  0, 15.24, 3.9624,                       !- X,Y,Z Vertex 3 {m}
  0, 4.572, 3.9624;                       !- X,Y,Z Vertex 4 {m}

OS:Surface,
  {e1e2cdfa-e14f-4c80-9bbf-394e9b75a847}, !- Handle
  Surface 11,                             !- Name
  Wall,                                   !- Surface Type
  ,                                       !- Construction Name
  {380d20cf-6372-4246-9d32-7d9ff65bb33f}, !- Space Name
  Outdoors,                               !- Outside Boundary Condition
  ,                                       !- Outside Boundary Condition Object
  SunExposed,                             !- Sun Exposure
  WindExposed,                            !- Wind Exposure
  ,                                       !- View Factor to Ground
  ,                                       !- Number of Vertices
  0, 15.24, 0,                            !- X,Y,Z Vertex 1 {m}
  -12.192, 15.24, 0,                      !- X,Y,Z Vertex 2 {m}
  -12.192, 15.24, 3.9624,                 !- X,Y,Z Vertex 3 {m}
  0, 15.24, 3.9624;                       !- X,Y,Z Vertex 4 {m}

OS:Surface,
  {fb7573a9-eaf0-4d07-90c2-e848ae91264a}, !- Handle
  Surface 12,                             !- Name
  RoofCeiling,                            !- Surface Type
  ,                                       !- Construction Name
  {380d20cf-6372-4246-9d32-7d9ff65bb33f}, !- Space Name
  Surface,                                !- Outside Boundary Condition
  {fbbd3fad-469b-4c63-babf-71b9af9e7d97}, !- Outside Boundary Condition Object
  NoSun,                                  !- Sun Exposure
  NoWind,                                 !- Wind Exposure
  ,                                       !- View Factor to Ground
  ,                                       !- Number of Vertices
  0, 10.668, 3.9624,                      !- X,Y,Z Vertex 1 {m}
  0, 15.24, 3.9624,                       !- X,Y,Z Vertex 2 {m}
  -12.192, 15.24, 3.9624,                 !- X,Y,Z Vertex 3 {m}
  -12.192, 10.668, 3.9624;                !- X,Y,Z Vertex 4 {m}

OS:Space,
  {a4f22156-be75-49b5-8e4d-a9d0a76029b1}, !- Handle
  sp-5-Space,                             !- Name
  ,                                       !- Space Type Name
  ,                                       !- Default Construction Set Name
  ,                                       !- Default Schedule Set Name
  ,                                       !- Direction of Relative North {deg}
  ,                                       !- X Origin {m}
  ,                                       !- Y Origin {m}
  ,                                       !- Z Origin {m}
  {2bccc91e-f09f-401d-af04-6dae4a6f6fe3}, !- Building Story Name
  {2cb132fa-22b2-4637-aef0-dcbff183cd7d}; !- Thermal Zone Name

OS:Surface,
  {e1eb1d38-ef4f-49ff-ac6f-6291ceb1e769}, !- Handle
  Surface 13,                             !- Name
  Floor,                                  !- Surface Type
  ,                                       !- Construction Name
  {a4f22156-be75-49b5-8e4d-a9d0a76029b1}, !- Space Name
  Surface,                                !- Outside Boundary Condition
  {4797406a-4327-4b09-8858-8f712592625d}, !- Outside Boundary Condition Object
  NoSun,                                  !- Sun Exposure
  NoWind,                                 !- Wind Exposure
  ,                                       !- View Factor to Ground
  ,                                       !- Number of Vertices
  0, 4.572, 3.9624,                       !- X,Y,Z Vertex 1 {m}
  0, 0, 3.9624,                           !- X,Y,Z Vertex 2 {m}
  -12.192, 0, 3.9624,                     !- X,Y,Z Vertex 3 {m}
  -12.192, 4.572, 3.9624;                 !- X,Y,Z Vertex 4 {m}

OS:Surface,
  {97df66e8-fd53-40c5-8fe0-235fdb9db6e2}, !- Handle
  Surface 14,                             !- Name
  Wall,                                   !- Surface Type
  ,                                       !- Construction Name
  {a4f22156-be75-49b5-8e4d-a9d0a76029b1}, !- Space Name
  Outdoors,                               !- Outside Boundary Condition
  ,                                       !- Outside Boundary Condition Object
  SunExposed,                             !- Sun Exposure
  WindExposed,                            !- Wind Exposure
  ,                                       !- View Factor to Ground
  ,                                       !- Number of Vertices
  -12.192, 0, 3.9624,                     !- X,Y,Z Vertex 1 {m}
  -12.192, 0, 7.9248,                     !- X,Y,Z Vertex 2 {m}
  -12.192, 10.668, 7.9248,                !- X,Y,Z Vertex 3 {m}
  -12.192, 10.668, 3.9624;                !- X,Y,Z Vertex 4 {m}

OS:Surface,
  {1a72d7bb-7930-45ed-9ce7-f9b5e3616461}, !- Handle
  Surface 15,                             !- Name
  Wall,                                   !- Surface Type
  ,                                       !- Construction Name
  {a4f22156-be75-49b5-8e4d-a9d0a76029b1}, !- Space Name
  Outdoors,                               !- Outside Boundary Condition
  ,                                       !- Outside Boundary Condition Object
  SunExposed,                             !- Sun Exposure
  WindExposed,                            !- Wind Exposure
  ,                                       !- View Factor to Ground
  ,                                       !- Number of Vertices
  -12.192, 0, 3.9624,                     !- X,Y,Z Vertex 1 {m}
  0, 0, 3.9624,                           !- X,Y,Z Vertex 2 {m}
  0, 0, 7.9248,                           !- X,Y,Z Vertex 3 {m}
  -12.192, 0, 7.9248;                     !- X,Y,Z Vertex 4 {m}

OS:Surface,
  {2324e00b-b6d2-4d1a-9d91-44f80cf3fef7}, !- Handle
  Surface 16,                             !- Name
  Wall,                                   !- Surface Type
  ,                                       !- Construction Name
  {a4f22156-be75-49b5-8e4d-a9d0a76029b1}, !- Space Name
  Surface,                                !- Outside Boundary Condition
  {7eaf3632-96b9-4cf8-bee1-2ecb12af26e9}, !- Outside Boundary Condition Object
  NoSun,                                  !- Sun Exposure
  NoWind,                                 !- Wind Exposure
  ,                                       !- View Factor to Ground
  ,                                       !- Number of Vertices
  0, 0, 3.9624,                           !- X,Y,Z Vertex 1 {m}
  0, 10.668, 3.9624,                      !- X,Y,Z Vertex 2 {m}
  0, 10.668, 7.9248,                      !- X,Y,Z Vertex 3 {m}
  0, 0, 7.9248;                           !- X,Y,Z Vertex 4 {m}

OS:Surface,
  {9666730a-aed5-490e-afef-5d673dcec283}, !- Handle
  Surface 17,                             !- Name
  Wall,                                   !- Surface Type
  ,                                       !- Construction Name
  {a4f22156-be75-49b5-8e4d-a9d0a76029b1}, !- Space Name
  Surface,                                !- Outside Boundary Condition
  {486a1827-c9cb-41cd-895d-2b05005f65d2}, !- Outside Boundary Condition Object
  NoSun,                                  !- Sun Exposure
  NoWind,                                 !- Wind Exposure
  ,                                       !- View Factor to Ground
  ,                                       !- Number of Vertices
  0, 10.668, 3.9624,                      !- X,Y,Z Vertex 1 {m}
  -12.192, 10.668, 3.9624,                !- X,Y,Z Vertex 2 {m}
  -12.192, 10.668, 7.9248,                !- X,Y,Z Vertex 3 {m}
  0, 10.668, 7.9248;                      !- X,Y,Z Vertex 4 {m}

OS:Surface,
  {66a8adb2-63b8-4205-9370-00084e3d288a}, !- Handle
  Surface 18,                             !- Name
  RoofCeiling,                            !- Surface Type
  ,                                       !- Construction Name
  {a4f22156-be75-49b5-8e4d-a9d0a76029b1}, !- Space Name
  Outdoors,                               !- Outside Boundary Condition
  ,                                       !- Outside Boundary Condition Object
  SunExposed,                             !- Sun Exposure
  WindExposed,                            !- Wind Exposure
  ,                                       !- View Factor to Ground
  ,                                       !- Number of Vertices
  -12.192, 0, 7.9248,                     !- X,Y,Z Vertex 1 {m}
  0, 0, 7.9248,                           !- X,Y,Z Vertex 2 {m}
  0, 10.668, 7.9248,                      !- X,Y,Z Vertex 3 {m}
  -12.192, 10.668, 7.9248;                !- X,Y,Z Vertex 4 {m}

OS:Space,
  {fa2fd483-5c4b-4808-a609-eb90d0fc7526}, !- Handle
  sp-6-Space,                             !- Name
  ,                                       !- Space Type Name
  ,                                       !- Default Construction Set Name
  ,                                       !- Default Schedule Set Name
  ,                                       !- Direction of Relative North {deg}
  ,                                       !- X Origin {m}
  ,                                       !- Y Origin {m}
  ,                                       !- Z Origin {m}
  {2bccc91e-f09f-401d-af04-6dae4a6f6fe3}, !- Building Story Name
  {f5c970af-6d82-4318-8c58-d6bf652615e1}; !- Thermal Zone Name

OS:Surface,
  {fbbd3fad-469b-4c63-babf-71b9af9e7d97}, !- Handle
  Surface 19,                             !- Name
  Floor,                                  !- Surface Type
  ,                                       !- Construction Name
  {fa2fd483-5c4b-4808-a609-eb90d0fc7526}, !- Space Name
  Surface,                                !- Outside Boundary Condition
  {fb7573a9-eaf0-4d07-90c2-e848ae91264a}, !- Outside Boundary Condition Object
  NoSun,                                  !- Sun Exposure
  NoWind,                                 !- Wind Exposure
  ,                                       !- View Factor to Ground
  ,                                       !- Number of Vertices
  0, 15.24, 3.9624,                       !- X,Y,Z Vertex 1 {m}
  0, 10.668, 3.9624,                      !- X,Y,Z Vertex 2 {m}
  -12.192, 10.668, 3.9624,                !- X,Y,Z Vertex 3 {m}
  -12.192, 15.24, 3.9624;                 !- X,Y,Z Vertex 4 {m}

OS:Surface,
  {d56b2deb-8cd6-41a9-95fa-edec955cf1c3}, !- Handle
  Surface 20,                             !- Name
  Wall,                                   !- Surface Type
  ,                                       !- Construction Name
  {fa2fd483-5c4b-4808-a609-eb90d0fc7526}, !- Space Name
  Outdoors,                               !- Outside Boundary Condition
  ,                                       !- Outside Boundary Condition Object
  SunExposed,                             !- Sun Exposure
  WindExposed,                            !- Wind Exposure
  ,                                       !- View Factor to Ground
  ,                                       !- Number of Vertices
  -12.192, 10.668, 3.9624,                !- X,Y,Z Vertex 1 {m}
  -12.192, 10.668, 7.9248,                !- X,Y,Z Vertex 2 {m}
  -12.192, 15.24, 7.9248,                 !- X,Y,Z Vertex 3 {m}
  -12.192, 15.24, 3.9624;                 !- X,Y,Z Vertex 4 {m}

OS:Surface,
  {486a1827-c9cb-41cd-895d-2b05005f65d2}, !- Handle
  Surface 21,                             !- Name
  Wall,                                   !- Surface Type
  ,                                       !- Construction Name
  {fa2fd483-5c4b-4808-a609-eb90d0fc7526}, !- Space Name
  Surface,                                !- Outside Boundary Condition
  {9666730a-aed5-490e-afef-5d673dcec283}, !- Outside Boundary Condition Object
  NoSun,                                  !- Sun Exposure
  NoWind,                                 !- Wind Exposure
  ,                                       !- View Factor to Ground
  ,                                       !- Number of Vertices
  -12.192, 10.668, 3.9624,                !- X,Y,Z Vertex 1 {m}
  0, 10.668, 3.9624,                      !- X,Y,Z Vertex 2 {m}
  0, 10.668, 7.9248,                      !- X,Y,Z Vertex 3 {m}
  -12.192, 10.668, 7.9248;                !- X,Y,Z Vertex 4 {m}

OS:Surface,
  {16cb93cc-eddd-4e4a-84a8-bb1bd91215ca}, !- Handle
  Surface 22,                             !- Name
  Wall,                                   !- Surface Type
  ,                                       !- Construction Name
  {fa2fd483-5c4b-4808-a609-eb90d0fc7526}, !- Space Name
  Surface,                                !- Outside Boundary Condition
  {b38fb92c-5829-423c-814e-e0c353f4789f}, !- Outside Boundary Condition Object
  NoSun,                                  !- Sun Exposure
  NoWind,                                 !- Wind Exposure
  ,                                       !- View Factor to Ground
  ,                                       !- Number of Vertices
  0, 10.668, 3.9624,                      !- X,Y,Z Vertex 1 {m}
  0, 15.24, 3.9624,                       !- X,Y,Z Vertex 2 {m}
  0, 15.24, 7.9248,                       !- X,Y,Z Vertex 3 {m}
  0, 10.668, 7.9248;                      !- X,Y,Z Vertex 4 {m}

OS:Surface,
  {f23a2158-f34b-4bcd-976c-6e278e430702}, !- Handle
  Surface 23,                             !- Name
  Wall,                                   !- Surface Type
  ,                                       !- Construction Name
  {fa2fd483-5c4b-4808-a609-eb90d0fc7526}, !- Space Name
  Outdoors,                               !- Outside Boundary Condition
  ,                                       !- Outside Boundary Condition Object
  SunExposed,                             !- Sun Exposure
  WindExposed,                            !- Wind Exposure
  ,                                       !- View Factor to Ground
  ,                                       !- Number of Vertices
  0, 15.24, 3.9624,                       !- X,Y,Z Vertex 1 {m}
  -12.192, 15.24, 3.9624,                 !- X,Y,Z Vertex 2 {m}
  -12.192, 15.24, 7.9248,                 !- X,Y,Z Vertex 3 {m}
  0, 15.24, 7.9248;                       !- X,Y,Z Vertex 4 {m}

OS:Surface,
  {772abd1d-cbe2-4d6b-993f-08b96f3dcefd}, !- Handle
  Surface 24,                             !- Name
  RoofCeiling,                            !- Surface Type
  ,                                       !- Construction Name
  {fa2fd483-5c4b-4808-a609-eb90d0fc7526}, !- Space Name
  Outdoors,                               !- Outside Boundary Condition
  ,                                       !- Outside Boundary Condition Object
  SunExposed,                             !- Sun Exposure
  WindExposed,                            !- Wind Exposure
  ,                                       !- View Factor to Ground
  ,                                       !- Number of Vertices
  -12.192, 10.668, 7.9248,                !- X,Y,Z Vertex 1 {m}
  0, 10.668, 7.9248,                      !- X,Y,Z Vertex 2 {m}
  0, 15.24, 7.9248,                       !- X,Y,Z Vertex 3 {m}
  -12.192, 15.24, 7.9248;                 !- X,Y,Z Vertex 4 {m}

OS:Space,
  {bb704e58-c47e-4c7b-a0ea-1bf81a763d4f}, !- Handle
  sp-4-Space,                             !- Name
  ,                                       !- Space Type Name
  ,                                       !- Default Construction Set Name
  ,                                       !- Default Schedule Set Name
  ,                                       !- Direction of Relative North {deg}
  ,                                       !- X Origin {m}
  ,                                       !- Y Origin {m}
  ,                                       !- Z Origin {m}
  {2bccc91e-f09f-401d-af04-6dae4a6f6fe3}, !- Building Story Name
  {e9bcf6a3-ed1e-4b0b-b764-5287885437f5}; !- Thermal Zone Name

OS:Surface,
  {f91cba08-b088-4bba-b534-b11a149fea60}, !- Handle
  Surface 25,                             !- Name
  Floor,                                  !- Surface Type
  ,                                       !- Construction Name
  {bb704e58-c47e-4c7b-a0ea-1bf81a763d4f}, !- Space Name
  Ground,                                 !- Outside Boundary Condition
  ,                                       !- Outside Boundary Condition Object
  NoSun,                                  !- Sun Exposure
  NoWind,                                 !- Wind Exposure
  ,                                       !- View Factor to Ground
  ,                                       !- Number of Vertices
  0, 0, 0,                                !- X,Y,Z Vertex 1 {m}
  0, 15.24, 0,                            !- X,Y,Z Vertex 2 {m}
  15.24, 15.24, 0,                        !- X,Y,Z Vertex 3 {m}
  15.24, 0, 0;                            !- X,Y,Z Vertex 4 {m}

OS:Surface,
  {b597f7f9-f526-4c52-94e6-1f9f0f67b632}, !- Handle
  Surface 26,                             !- Name
  Wall,                                   !- Surface Type
  ,                                       !- Construction Name
  {bb704e58-c47e-4c7b-a0ea-1bf81a763d4f}, !- Space Name
  Surface,                                !- Outside Boundary Condition
  {2c152182-1c6f-4e7f-be2e-7875626fc85f}, !- Outside Boundary Condition Object
  NoSun,                                  !- Sun Exposure
  NoWind,                                 !- Wind Exposure
  ,                                       !- View Factor to Ground