
OS:Version,
  {6efa11f1-a157-4464-a54a-9d3c17f2cc63}, !- Handle
  1.9.0;                                  !- Version Identifier

OS:Facility,
  {0398ff44-4478-48ec-a874-d36a2d940232}; !- Handle

OS:Building,
  {191664d9-8f25-42e3-99f4-1d3c7107e352}, !- Handle
  Building 1,                             !- Name
  ,                                       !- Building Sector Type
  ,                                       !- North Axis {deg}
  ,                                       !- Nominal Floor to Floor Height {m}
  ,                                       !- Space Type Name
  ,                                       !- Default Construction Set Name
  ;                                       !- Default Schedule Set Name

OS:BuildingStory,
  {7c384c7e-e995-4187-955b-b1dccc5a8e7d}, !- Handle
  Level B1,                               !- Name
  ,                                       !- Nominal Z Coordinate {m}
  ,                                       !- Nominal Floor to Floor Height {m}
  ,                                       !- Default Construction Set Name
  ,                                       !- Default Schedule Set Name
  ;                                       !- Group Rendering Name

OS:BuildingStory,
  {9608d0b1-11a7-468b-a79a-9f69ce48f474}, !- Handle
  Level 1,                                !- Name
  ,                                       !- Nominal Z Coordinate {m}
  ,                                       !- Nominal Floor to Floor Height {m}
  ,                                       !- Default Construction Set Name
  ,                                       !- Default Schedule Set Name
  ;                                       !- Group Rendering Name

OS:BuildingStory,
  {c97de2f7-bc24-4403-bc8f-1724c7970207}, !- Handle
  Level 2,                                !- Name
  ,                                       !- Nominal Z Coordinate {m}
  3.048,                                  !- Nominal Floor to Floor Height {m}
  ,                                       !- Default Construction Set Name
  ,                                       !- Default Schedule Set Name
  ;                                       !- Group Rendering Name

OS:Space,
  {521bc62c-0049-442f-8338-261d3202536a}, !- Handle
  sp-1-Space,                             !- Name
  ,                                       !- Space Type Name
  ,                                       !- Default Construction Set Name
  ,                                       !- Default Schedule Set Name
  ,                                       !- Direction of Relative North {deg}
  ,                                       !- X Origin {m}
  ,                                       !- Y Origin {m}
  ,                                       !- Z Origin {m}
  {7c384c7e-e995-4187-955b-b1dccc5a8e7d}, !- Building Story Name
  {f6592a18-0213-4374-a5db-4d9331da9814}; !- Thermal Zone Name

OS:Surface,
  {ad284b82-be72-4f28-90a1-c7b0f920b88d}, !- Handle
  Surface 1,                              !- Name
  Floor,                                  !- Surface Type
  ,                                       !- Construction Name
  {521bc62c-0049-442f-8338-261d3202536a}, !- Space Name
  Ground,                                 !- Outside Boundary Condition
  ,                                       !- Outside Boundary Condition Object
  NoSun,                                  !- Sun Exposure
  NoWind,                                 !- Wind Exposure
  ,                                       !- View Factor to Ground
  ,                                       !- Number of Vertices
  0, 0, -3.6576,                          !- X,Y,Z Vertex 1 {m}
  0, 8.382, -3.6576,                      !- X,Y,Z Vertex 2 {m}
  6.5532, 8.382, -3.6576,                 !- X,Y,Z Vertex 3 {m}
  6.5532, 0, -3.6576;                     !- X,Y,Z Vertex 4 {m}

OS:Surface,
  {2b18f710-7d89-4bfc-b6b6-e686292599ab}, !- Handle
  Surface 2,                              !- Name
  Wall,                                   !- Surface Type
  ,                                       !- Construction Name
  {521bc62c-0049-442f-8338-261d3202536a}, !- Space Name
  Outdoors,                               !- Outside Boundary Condition
  ,                                       !- Outside Boundary Condition Object
  SunExposed,                             !- Sun Exposure
  WindExposed,                            !- Wind Exposure
  ,                                       !- View Factor to Ground
  ,                                       !- Number of Vertices
  0, 0, -3.6576,                          !- X,Y,Z Vertex 1 {m}
  0, 0, 0,                                !- X,Y,Z Vertex 2 {m}
  0, 8.382, 0,                            !- X,Y,Z Vertex 3 {m}
  0, 8.382, -3.6576;                      !- X,Y,Z Vertex 4 {m}

OS:Surface,
  {dd3513cd-e2e4-4648-a0e4-3c2708397866}, !- Handle
  Surface 3,                              !- Name
  RoofCeiling,                            !- Surface Type
  ,                                       !- Construction Name
  {521bc62c-0049-442f-8338-261d3202536a}, !- Space Name
  Outdoors,                               !- Outside Boundary Condition
  ,                                       !- Outside Boundary Condition Object
  SunExposed,                             !- Sun Exposure
  WindExposed,                            !- Wind Exposure
  ,                                       !- View Factor to Ground
  ,                                       !- Number of Vertices
  0, 0, 0,                                !- X,Y,Z Vertex 1 {m}
  6.5532, 0, 0,                           !- X,Y,Z Vertex 2 {m}
  6.5532, 8.382, 0,                       !- X,Y,Z Vertex 3 {m}
  0, 8.382, 0;                            !- X,Y,Z Vertex 4 {m}

OS:Surface,
  {40e0477b-0a07-4101-ad8e-f30965807cfe}, !- Handle
  Surface 4,                              !- Name
  Wall,                                   !- Surface Type
  ,                                       !- Construction Name
  {521bc62c-0049-442f-8338-261d3202536a}, !- Space Name
  Outdoors,                               !- Outside Boundary Condition
  ,                                       !- Outside Boundary Condition Object
  SunExposed,                             !- Sun Exposure
  WindExposed,                            !- Wind Exposure
  ,                                       !- View Factor to Ground
  ,                                       !- Number of Vertices
  0, 8.382, -3.6576,                      !- X,Y,Z Vertex 1 {m}
  0, 8.382, 0,                            !- X,Y,Z Vertex 2 {m}
  6.5532, 8.382, 0,                       !- X,Y,Z Vertex 3 {m}
  6.5532, 8.382, -3.6576;                 !- X,Y,Z Vertex 4 {m}

OS:Surface,
  {3b430960-f5a4-450d-aaec-541f2808ffe7}, !- Handle
  Surface 5,                              !- Name
  Wall,                                   !- Surface Type
  ,                                       !- Construction Name
  {521bc62c-0049-442f-8338-261d3202536a}, !- Space Name
  Outdoors,                               !- Outside Boundary Condition
  ,                                       !- Outside Boundary Condition Object
  SunExposed,                             !- Sun Exposure
  WindExposed,                            !- Wind Exposure
  ,                                       !- View Factor to Ground
  ,                                       !- Number of Vertices
  6.5532, 8.382, -3.6576,                 !- X,Y,Z Vertex 1 {m}
  6.5532, 8.382, 0,                       !- X,Y,Z Vertex 2 {m}
  6.5532, 0, 0,                           !- X,Y,Z Vertex 3 {m}
  6.5532, 0, -3.6576;                     !- X,Y,Z Vertex 4 {m}

OS:Surface,
  {f869aba8-9712-463d-a1c2-0a6f22f31997}, !- Handle
  Surface 6,                              !- Name
  Wall,                                   !- Surface Type
  ,                                       !- Construction Name
  {521bc62c-0049-442f-8338-261d3202536a}, !- Space Name
  Outdoors,                               !- Outside Boundary Condition
  ,                                       !- Outside Boundary Condition Object
  SunExposed,                             !- Sun Exposure
  WindExposed,                            !- Wind Exposure
  ,                                       !- View Factor to Ground
  ,                                       !- Number of Vertices
  6.5532, 0, -3.6576,                     !- X,Y,Z Vertex 1 {m}
  6.5532, 0, 0,                           !- X,Y,Z Vertex 2 {m}
  0, 0, 0,                                !- X,Y,Z Vertex 3 {m}
  0, 0, -3.6576;                          !- X,Y,Z Vertex 4 {m}

OS:SubSurface,
  {1eccf95a-2b2c-46a1-a712-bfcae4d19fd2}, !- Handle
  Sub Surface 1,                          !- Name
  FixedWindow,                            !- Sub Surface Type
  ,                                       !- Construction Name
  {f869aba8-9712-463d-a1c2-0a6f22f31997}, !- Surface Name
  ,                                       !- Outside Boundary Condition Object
  ,                                       !- View Factor to Ground
  ,                                       !- Shading Control Name
  ,                                       !- Frame and Divider Name
  ,                                       !- Multiplier
  ,                                       !- Number of Vertices
  6.4008, 0, -3.5052,                     !- X,Y,Z Vertex 1 {m}
  6.4008, 0, -0.5,                        !- X,Y,Z Vertex 2 {m}
  0.5, 0, -0.5,                           !- X,Y,Z Vertex 3 {m}
  0.5, 0, -3.5052;                        !- X,Y,Z Vertex 4 {m}

OS:ThermalZone,
  {f6592a18-0213-4374-a5db-4d9331da9814}, !- Handle
  sp-1-Zone,                              !- Name
  ,                                       !- Multiplier
  ,                                       !- Ceiling Height {m}
  ,                                       !- Volume {m3}
  ,                                       !- Floor Area {m2}
  ,                                       !- Zone Inside Convection Algorithm
  ,                                       !- Zone Outside Convection Algorithm
  ,                                       !- Zone Conditioning Equipment List Name
  {80bf9070-a856-4ada-b3e9-4fa99344813d}, !- Zone Air Inlet Port List
  {be39b34b-a2d9-4e90-88cc-7d041a33151f}, !- Zone Air Exhaust Port List
  {d7ad27b6-b49b-437f-a09b-3385ecba01ed}, !- Zone Air Node Name
  ,                                       !- Zone Return Air Node Name
  ,                                       !- Primary Daylighting Control Name
  ,                                       !- Fraction of Zone Controlled by Primary Daylighting Control
  ,                                       !- Secondary Daylighting Control Name
  ,                                       !- Fraction of Zone Controlled by Secondary Daylighting Control
  ,                                       !- Illuminance Map Name
  ,                                       !- Group Rendering Name
  ,                                       !- Thermostat Name
  No;                                     !- Use Ideal Air Loads

OS:Node,
  {0ce839e9-955f-41c3-a19f-e958dbfe8ddd}, !- Handle
  Node 1,                                 !- Name
  {d7ad27b6-b49b-437f-a09b-3385ecba01ed}, !- Inlet Port
  ;                                       !- Outlet Port

OS:Connection,
  {d7ad27b6-b49b-437f-a09b-3385ecba01ed}, !- Handle
  {2009182d-0e8d-42e6-a63d-641ff04a343d}, !- Name
  {f6592a18-0213-4374-a5db-4d9331da9814}, !- Source Object
  11,                                     !- Outlet Port
  {0ce839e9-955f-41c3-a19f-e958dbfe8ddd}, !- Target Object
  2;                                      !- Inlet Port

OS:PortList,
  {80bf9070-a856-4ada-b3e9-4fa99344813d}, !- Handle
  Port List 1,                            !- Name
  {f6592a18-0213-4374-a5db-4d9331da9814}; !- HVAC Component

OS:PortList,
  {be39b34b-a2d9-4e90-88cc-7d041a33151f}, !- Handle
  Port List 2,                            !- Name
  {f6592a18-0213-4374-a5db-4d9331da9814}; !- HVAC Component

OS:Sizing:Zone,
  {40fe9cd4-2133-45e2-9182-4ed1eca403b8}, !- Handle
  {f6592a18-0213-4374-a5db-4d9331da9814}, !- Zone or ZoneList Name
  14,                                     !- Zone Cooling Design Supply Air Temperature {C}
  40,                                     !- Zone Heating Design Supply Air Temperature {C}
  0.0085,                                 !- Zone Cooling Design Supply Air Humidity Ratio {kg-H2O/kg-air}
  0.008,                                  !- Zone Heating Design Supply Air Humidity Ratio {kg-H2O/kg-air}
  ,                                       !- Zone Heating Sizing Factor
  ,                                       !- Zone Cooling Sizing Factor
  DesignDay,                              !- Cooling Design Air Flow Method
  ,                                       !- Cooling Design Air Flow Rate {m3/s}
  ,                                       !- Cooling Minimum Air Flow per Zone Floor Area {m3/s-m2}
  ,                                       !- Cooling Minimum Air Flow {m3/s}
  ,                                       !- Cooling Minimum Air Flow Fraction
  DesignDay,                              !- Heating Design Air Flow Method
  ,                                       !- Heating Design Air Flow Rate {m3/s}
  ,                                       !- Heating Maximum Air Flow per Zone Floor Area {m3/s-m2}
  ,                                       !- Heating Maximum Air Flow {m3/s}
  ,                                       !- Heating Maximum Air Flow Fraction
  ,                                       !- Design Zone Air Distribution Effectiveness in Cooling Mode
  ;                                       !- Design Zone Air Distribution Effectiveness in Heating Mode

OS:ZoneHVAC:EquipmentList,
  {7ccc44f9-2daf-49b2-9640-995580d6fdf0}, !- Handle
  Zone HVAC Equipment List 1,             !- Name
  {f6592a18-0213-4374-a5db-4d9331da9814}; !- Thermal Zone

