
OS:Version,
  {c3b99aca-ba89-41c4-bec3-27ff83b39e62}, !- Handle
  1.10.0;                                 !- Version Identifier

OS:Facility,
  {aea0ac04-c242-429a-a889-cbd62b608f0e}; !- Handle

OS:Building,
  {bd801a03-63d5-49a1-a613-7383b53e4f3d}, !- Handle
  Building 1,                             !- Name
  ,                                       !- Building Sector Type
  ,                                       !- North Axis {deg}
  ,                                       !- Nominal Floor to Floor Height {m}
  ,                                       !- Space Type Name
  ,                                       !- Default Construction Set Name
  ;                                       !- Default Schedule Set Name

OS:BuildingStory,
  {2c7debcc-757d-490d-aab5-1f819430540c}, !- Handle
  Level B1,                               !- Name
  ,                                       !- Nominal Z Coordinate {m}
  ,                                       !- Nominal Floor to Floor Height {m}
  ,                                       !- Default Construction Set Name
  ,                                       !- Default Schedule Set Name
  ;                                       !- Group Rendering Name

OS:BuildingStory,
  {96e57e4a-f0a8-4e1a-a325-17a927466db9}, !- Handle
  Level 1,                                !- Name
  ,                                       !- Nominal Z Coordinate {m}
  ,                                       !- Nominal Floor to Floor Height {m}
  ,                                       !- Default Construction Set Name
  ,                                       !- Default Schedule Set Name
  ;                                       !- Group Rendering Name

OS:BuildingStory,
  {4ccbf435-8349-4d45-9b1f-92daced3141b}, !- Handle
  Level 2,                                !- Name
  ,                                       !- Nominal Z Coordinate {m}
  3.048,                                  !- Nominal Floor to Floor Height {m}
  ,                                       !- Default Construction Set Name
  ,                                       !- Default Schedule Set Name
  ;                                       !- Group Rendering Name

OS:Space,
  {f405ee1d-1739-48b2-9925-70d9ef09979c}, !- Handle
  sp-1-Space,                             !- Name
  ,                                       !- Space Type Name
  ,                                       !- Default Construction Set Name
  ,                                       !- Default Schedule Set Name
  ,                                       !- Direction of Relative North {deg}
  ,                                       !- X Origin {m}
  ,                                       !- Y Origin {m}
  ,                                       !- Z Origin {m}
  {2c7debcc-757d-490d-aab5-1f819430540c}, !- Building Story Name
  {27ef69d4-1f0f-4204-a6fb-34145eb9b3c7}; !- Thermal Zone Name

OS:Surface,
  {4dd65ff0-813c-407b-8ff9-67c3becb42c7}, !- Handle
  Surface 1,                              !- Name
  Floor,                                  !- Surface Type
  ,                                       !- Construction Name
  {f405ee1d-1739-48b2-9925-70d9ef09979c}, !- Space Name
  Ground,                                 !- Outside Boundary Condition
  ,                                       !- Outside Boundary Condition Object
  NoSun,                                  !- Sun Exposure
  NoWind,                                 !- Wind Exposure
  ,                                       !- View Factor to Ground
  ,                                       !- Number of Vertices
  0, 0, -3.6576,                          !- X,Y,Z Vertex 1 {m}
  0, 8.382, -3.6576,                      !- X,Y,Z Vertex 2 {m}
  6.5532, 8.382, -3.6576,                 !- X,Y,Z Vertex 3 {m}
  6.5532, 0, -3.6576;                     !- X,Y,Z Vertex 4 {m}

OS:Surface,
  {69404646-1c3e-4c48-8954-cfb8015339dd}, !- Handle
  Surface 2,                              !- Name
  Wall,                                   !- Surface Type
  ,                                       !- Construction Name
  {f405ee1d-1739-48b2-9925-70d9ef09979c}, !- Space Name
  Outdoors,                               !- Outside Boundary Condition
  ,                                       !- Outside Boundary Condition Object
  SunExposed,                             !- Sun Exposure
  WindExposed,                            !- Wind Exposure
  ,                                       !- View Factor to Ground
  ,                                       !- Number of Vertices
  0, 0, -3.6576,                          !- X,Y,Z Vertex 1 {m}
  0, 0, 0,                                !- X,Y,Z Vertex 2 {m}
  0, 8.382, 0,                            !- X,Y,Z Vertex 3 {m}
  0, 8.382, -3.6576;                      !- X,Y,Z Vertex 4 {m}

OS:Surface,
  {8974dd2c-3712-43a7-9afb-e2abebd3688b}, !- Handle
  Surface 3,                              !- Name
  RoofCeiling,                            !- Surface Type
  ,                                       !- Construction Name
  {f405ee1d-1739-48b2-9925-70d9ef09979c}, !- Space Name
  Outdoors,                               !- Outside Boundary Condition
  ,                                       !- Outside Boundary Condition Object
  SunExposed,                             !- Sun Exposure
  WindExposed,                            !- Wind Exposure
  ,                                       !- View Factor to Ground
  ,                                       !- Number of Vertices
  0, 0, 0,                                !- X,Y,Z Vertex 1 {m}
  6.5532, 0, 0,                           !- X,Y,Z Vertex 2 {m}
  6.5532, 8.382, 0,                       !- X,Y,Z Vertex 3 {m}
  0, 8.382, 0;                            !- X,Y,Z Vertex 4 {m}

OS:Surface,
  {bff773f8-c1de-443e-aad3-da23ce35f8b5}, !- Handle
  Surface 4,                              !- Name
  Wall,                                   !- Surface Type
  ,                                       !- Construction Name
  {f405ee1d-1739-48b2-9925-70d9ef09979c}, !- Space Name
  Outdoors,                               !- Outside Boundary Condition
  ,                                       !- Outside Boundary Condition Object
  SunExposed,                             !- Sun Exposure
  WindExposed,                            !- Wind Exposure
  ,                                       !- View Factor to Ground
  ,                                       !- Number of Vertices
  0, 8.382, -3.6576,                      !- X,Y,Z Vertex 1 {m}
  0, 8.382, 0,                            !- X,Y,Z Vertex 2 {m}
  6.5532, 8.382, 0,                       !- X,Y,Z Vertex 3 {m}
  6.5532, 8.382, -3.6576;                 !- X,Y,Z Vertex 4 {m}

OS:Surface,
  {1a7e1876-057f-49f5-9e61-2b54f52cf6f9}, !- Handle
  Surface 5,                              !- Name
  Wall,                                   !- Surface Type
  ,                                       !- Construction Name
  {f405ee1d-1739-48b2-9925-70d9ef09979c}, !- Space Name
  Outdoors,                               !- Outside Boundary Condition
  ,                                       !- Outside Boundary Condition Object
  SunExposed,                             !- Sun Exposure
  WindExposed,                            !- Wind Exposure
  ,                                       !- View Factor to Ground
  ,                                       !- Number of Vertices
  6.5532, 8.382, -3.6576,                 !- X,Y,Z Vertex 1 {m}
  6.5532, 8.382, 0,                       !- X,Y,Z Vertex 2 {m}
  6.5532, 0, 0,                           !- X,Y,Z Vertex 3 {m}
  6.5532, 0, -3.6576;                     !- X,Y,Z Vertex 4 {m}

OS:Surface,
  {8171cb4f-2280-49ef-a542-868a89ac1aad}, !- Handle
  Surface 6,                              !- Name
  Wall,                                   !- Surface Type
  ,                                       !- Construction Name
  {f405ee1d-1739-48b2-9925-70d9ef09979c}, !- Space Name
  Outdoors,                               !- Outside Boundary Condition
  ,                                       !- Outside Boundary Condition Object
  SunExposed,                             !- Sun Exposure
  WindExposed,                            !- Wind Exposure
  ,                                       !- View Factor to Ground
  ,                                       !- Number of Vertices
  6.5532, 0, -3.6576,                     !- X,Y,Z Vertex 1 {m}
  6.5532, 0, 0,                           !- X,Y,Z Vertex 2 {m}
  0, 0, 0,                                !- X,Y,Z Vertex 3 {m}
  0, 0, -3.6576;                          !- X,Y,Z Vertex 4 {m}

OS:SubSurface,
  {9ef4b807-4bb7-41f3-b12b-309a90d70386}, !- Handle
  Sub Surface 1,                          !- Name
  FixedWindow,                            !- Sub Surface Type
  ,                                       !- Construction Name
  {8171cb4f-2280-49ef-a542-868a89ac1aad}, !- Surface Name
  ,                                       !- Outside Boundary Condition Object
  ,                                       !- View Factor to Ground
  ,                                       !- Shading Control Name
  ,                                       !- Frame and Divider Name
  ,                                       !- Multiplier
  ,                                       !- Number of Vertices
  6.4008, 0, -3.5052,                     !- X,Y,Z Vertex 1 {m}
  6.4008, 0, -0.5,                        !- X,Y,Z Vertex 2 {m}
  0.5, 0, -0.5,                           !- X,Y,Z Vertex 3 {m}
  0.5, 0, -3.5052;                        !- X,Y,Z Vertex 4 {m}

OS:ThermalZone,
  {27ef69d4-1f0f-4204-a6fb-34145eb9b3c7}, !- Handle
  sp-1-Zone,                              !- Name
  ,                                       !- Multiplier
  ,                                       !- Ceiling Height {m}
  ,                                       !- Volume {m3}
  ,                                       !- Floor Area {m2}
  ,                                       !- Zone Inside Convection Algorithm
  ,                                       !- Zone Outside Convection Algorithm
  ,                                       !- Zone Conditioning Equipment List Name
  {dbef637c-34d7-485d-a9cf-dd93569d8490}, !- Zone Air Inlet Port List
  {654efabb-e19b-4973-a373-0ea23ca1f640}, !- Zone Air Exhaust Port List
  {0b3a12aa-3e4b-4f7e-8824-54439f518e25}, !- Zone Air Node Name
  ,                                       !- Zone Return Air Node Name
  ,                                       !- Primary Daylighting Control Name
  ,                                       !- Fraction of Zone Controlled by Primary Daylighting Control
  ,                                       !- Secondary Daylighting Control Name
  ,                                       !- Fraction of Zone Controlled by Secondary Daylighting Control
  ,                                       !- Illuminance Map Name
  ,                                       !- Group Rendering Name
  ,                                       !- Thermostat Name
  No;                                     !- Use Ideal Air Loads

OS:Node,
  {bd4b9099-8e42-4a72-88dc-192b80870022}, !- Handle
  Node 1,                                 !- Name
  {0b3a12aa-3e4b-4f7e-8824-54439f518e25}, !- Inlet Port
  ;                                       !- Outlet Port

OS:Connection,
  {0b3a12aa-3e4b-4f7e-8824-54439f518e25}, !- Handle
  {c5520a9a-b5af-48df-862f-0dc33835d697}, !- Name
  {27ef69d4-1f0f-4204-a6fb-34145eb9b3c7}, !- Source Object
  11,                                     !- Outlet Port
  {bd4b9099-8e42-4a72-88dc-192b80870022}, !- Target Object
  2;                                      !- Inlet Port

OS:PortList,
  {dbef637c-34d7-485d-a9cf-dd93569d8490}, !- Handle
  Port List 1,                            !- Name
  {27ef69d4-1f0f-4204-a6fb-34145eb9b3c7}; !- HVAC Component

OS:PortList,
  {654efabb-e19b-4973-a373-0ea23ca1f640}, !- Handle
  Port List 2,                            !- Name
  {27ef69d4-1f0f-4204-a6fb-34145eb9b3c7}; !- HVAC Component

OS:Sizing:Zone,
  {80d3411f-3841-4036-9cab-7e8b7371ddce}, !- Handle
  {27ef69d4-1f0f-4204-a6fb-34145eb9b3c7}, !- Zone or ZoneList Name
  14,                                     !- Zone Cooling Design Supply Air Temperature {C}
  40,                                     !- Zone Heating Design Supply Air Temperature {C}
  0.0085,                                 !- Zone Cooling Design Supply Air Humidity Ratio {kg-H2O/kg-air}
  0.008,                                  !- Zone Heating Design Supply Air Humidity Ratio {kg-H2O/kg-air}
  ,                                       !- Zone Heating Sizing Factor
  ,                                       !- Zone Cooling Sizing Factor
  DesignDay,                              !- Cooling Design Air Flow Method
  ,                                       !- Cooling Design Air Flow Rate {m3/s}
  ,                                       !- Cooling Minimum Air Flow per Zone Floor Area {m3/s-m2}
  ,                                       !- Cooling Minimum Air Flow {m3/s}
  ,                                       !- Cooling Minimum Air Flow Fraction
  DesignDay,                              !- Heating Design Air Flow Method
  ,                                       !- Heating Design Air Flow Rate {m3/s}
  ,                                       !- Heating Maximum Air Flow per Zone Floor Area {m3/s-m2}
  ,                                       !- Heating Maximum Air Flow {m3/s}
  ,                                       !- Heating Maximum Air Flow Fraction
  ,                                       !- Design Zone Air Distribution Effectiveness in Cooling Mode
  ;                                       !- Design Zone Air Distribution Effectiveness in Heating Mode

OS:ZoneHVAC:EquipmentList,
  {ddc288e7-3ea7-436b-aed0-11e776dc1504}, !- Handle
  Zone HVAC Equipment List 1,             !- Name
  {27ef69d4-1f0f-4204-a6fb-34145eb9b3c7}; !- Thermal Zone

