
OS:Version,
  {6e02ea79-b1f2-4376-adc6-3f66b9b9849a}, !- Handle
  1.12.2;                                 !- Version Identifier

OS:Facility,
  {cb699195-c21c-4bb3-ba22-4bd31ad88c1c}; !- Handle

OS:Building,
  {1bfd5970-775a-4fee-b525-412e1ac54fbe}, !- Handle
  Building 1,                             !- Name
  ,                                       !- Building Sector Type
  ,                                       !- North Axis {deg}
  ,                                       !- Nominal Floor to Floor Height {m}
  ,                                       !- Space Type Name
  ,                                       !- Default Construction Set Name
  ;                                       !- Default Schedule Set Name

OS:BuildingStory,
  {5c11115e-8509-4ee4-9c1e-48c76c541be6}, !- Handle
  Level B1,                               !- Name
  ,                                       !- Nominal Z Coordinate {m}
  ,                                       !- Nominal Floor to Floor Height {m}
  ,                                       !- Default Construction Set Name
  ,                                       !- Default Schedule Set Name
  ;                                       !- Group Rendering Name

OS:BuildingStory,
  {d9b0bdc2-7457-4e4c-8181-60d62e5bc5db}, !- Handle
  Level 1,                                !- Name
  ,                                       !- Nominal Z Coordinate {m}
  ,                                       !- Nominal Floor to Floor Height {m}
  ,                                       !- Default Construction Set Name
  ,                                       !- Default Schedule Set Name
  ;                                       !- Group Rendering Name

OS:BuildingStory,
  {08dc25b5-7aa4-45dc-aac9-9e855cfc7e80}, !- Handle
  Level 2,                                !- Name
  ,                                       !- Nominal Z Coordinate {m}
  3.048,                                  !- Nominal Floor to Floor Height {m}
  ,                                       !- Default Construction Set Name
  ,                                       !- Default Schedule Set Name
  ;                                       !- Group Rendering Name

OS:Space,
  {48d5eaa1-f356-4cf5-ba2a-ff083208367b}, !- Handle
  sp-1-Space,                             !- Name
  ,                                       !- Space Type Name
  ,                                       !- Default Construction Set Name
  ,                                       !- Default Schedule Set Name
  ,                                       !- Direction of Relative North {deg}
  ,                                       !- X Origin {m}
  ,                                       !- Y Origin {m}
  ,                                       !- Z Origin {m}
  {5c11115e-8509-4ee4-9c1e-48c76c541be6}, !- Building Story Name
  {74fb8b46-e92d-40f8-8d4f-f38ddda835b0}; !- Thermal Zone Name

OS:Surface,
  {2c6b0def-147b-4035-bd4e-d262c627b25d}, !- Handle
  Surface 1,                              !- Name
  Floor,                                  !- Surface Type
  ,                                       !- Construction Name
  {48d5eaa1-f356-4cf5-ba2a-ff083208367b}, !- Space Name
  Ground,                                 !- Outside Boundary Condition
  ,                                       !- Outside Boundary Condition Object
  NoSun,                                  !- Sun Exposure
  NoWind,                                 !- Wind Exposure
  ,                                       !- View Factor to Ground
  ,                                       !- Number of Vertices
  0, 0, -3.6576,                          !- X,Y,Z Vertex 1 {m}
  0, 8.382, -3.6576,                      !- X,Y,Z Vertex 2 {m}
  6.5532, 8.382, -3.6576,                 !- X,Y,Z Vertex 3 {m}
  6.5532, 0, -3.6576;                     !- X,Y,Z Vertex 4 {m}

OS:Surface,
  {8b2c16d2-8ea8-41ef-96d3-8fbd68f84343}, !- Handle
  Surface 2,                              !- Name
  Wall,                                   !- Surface Type
  ,                                       !- Construction Name
  {48d5eaa1-f356-4cf5-ba2a-ff083208367b}, !- Space Name
  Outdoors,                               !- Outside Boundary Condition
  ,                                       !- Outside Boundary Condition Object
  SunExposed,                             !- Sun Exposure
  WindExposed,                            !- Wind Exposure
  ,                                       !- View Factor to Ground
  ,                                       !- Number of Vertices
  0, 0, -3.6576,                          !- X,Y,Z Vertex 1 {m}
  0, 0, 0,                                !- X,Y,Z Vertex 2 {m}
  0, 8.382, 0,                            !- X,Y,Z Vertex 3 {m}
  0, 8.382, -3.6576;                      !- X,Y,Z Vertex 4 {m}

OS:Surface,
  {701380ac-910b-4e12-b240-0a42b4448206}, !- Handle
  Surface 3,                              !- Name
  RoofCeiling,                            !- Surface Type
  ,                                       !- Construction Name
  {48d5eaa1-f356-4cf5-ba2a-ff083208367b}, !- Space Name
  Outdoors,                               !- Outside Boundary Condition
  ,                                       !- Outside Boundary Condition Object
  SunExposed,                             !- Sun Exposure
  WindExposed,                            !- Wind Exposure
  ,                                       !- View Factor to Ground
  ,                                       !- Number of Vertices
  0, 0, 0,                                !- X,Y,Z Vertex 1 {m}
  6.5532, 0, 0,                           !- X,Y,Z Vertex 2 {m}
  6.5532, 8.382, 0,                       !- X,Y,Z Vertex 3 {m}
  0, 8.382, 0;                            !- X,Y,Z Vertex 4 {m}

OS:Surface,
  {58f67f01-ddd3-4dd6-9b12-77c87dce7c6f}, !- Handle
  Surface 4,                              !- Name
  Wall,                                   !- Surface Type
  ,                                       !- Construction Name
  {48d5eaa1-f356-4cf5-ba2a-ff083208367b}, !- Space Name
  Outdoors,                               !- Outside Boundary Condition
  ,                                       !- Outside Boundary Condition Object
  SunExposed,                             !- Sun Exposure
  WindExposed,                            !- Wind Exposure
  ,                                       !- View Factor to Ground
  ,                                       !- Number of Vertices
  0, 8.382, -3.6576,                      !- X,Y,Z Vertex 1 {m}
  0, 8.382, 0,                            !- X,Y,Z Vertex 2 {m}
  6.5532, 8.382, 0,                       !- X,Y,Z Vertex 3 {m}
  6.5532, 8.382, -3.6576;                 !- X,Y,Z Vertex 4 {m}

OS:Surface,
  {1626a8e9-c9f1-4bf0-b243-5985d8afb371}, !- Handle
  Surface 5,                              !- Name
  Wall,                                   !- Surface Type
  ,                                       !- Construction Name
  {48d5eaa1-f356-4cf5-ba2a-ff083208367b}, !- Space Name
  Outdoors,                               !- Outside Boundary Condition
  ,                                       !- Outside Boundary Condition Object
  SunExposed,                             !- Sun Exposure
  WindExposed,                            !- Wind Exposure
  ,                                       !- View Factor to Ground
  ,                                       !- Number of Vertices
  6.5532, 8.382, -3.6576,                 !- X,Y,Z Vertex 1 {m}
  6.5532, 8.382, 0,                       !- X,Y,Z Vertex 2 {m}
  6.5532, 0, 0,                           !- X,Y,Z Vertex 3 {m}
  6.5532, 0, -3.6576;                     !- X,Y,Z Vertex 4 {m}

OS:Surface,
  {d0bd0459-140d-4f8a-acc7-647764bebce9}, !- Handle
  Surface 6,                              !- Name
  Wall,                                   !- Surface Type
  ,                                       !- Construction Name
  {48d5eaa1-f356-4cf5-ba2a-ff083208367b}, !- Space Name
  Outdoors,                               !- Outside Boundary Condition
  ,                                       !- Outside Boundary Condition Object
  SunExposed,                             !- Sun Exposure
  WindExposed,                            !- Wind Exposure
  ,                                       !- View Factor to Ground
  ,                                       !- Number of Vertices
  6.5532, 0, -3.6576,                     !- X,Y,Z Vertex 1 {m}
  6.5532, 0, 0,                           !- X,Y,Z Vertex 2 {m}
  0, 0, 0,                                !- X,Y,Z Vertex 3 {m}
  0, 0, -3.6576;                          !- X,Y,Z Vertex 4 {m}

OS:SubSurface,
  {de0533b8-7d03-4a6f-92e8-3d51d36d53bf}, !- Handle
  Sub Surface 1,                          !- Name
  FixedWindow,                            !- Sub Surface Type
  ,                                       !- Construction Name
  {d0bd0459-140d-4f8a-acc7-647764bebce9}, !- Surface Name
  ,                                       !- Outside Boundary Condition Object
  ,                                       !- View Factor to Ground
  ,                                       !- Shading Control Name
  ,                                       !- Frame and Divider Name
  ,                                       !- Multiplier
  ,                                       !- Number of Vertices
  6.4008, 0, -3.5052,                     !- X,Y,Z Vertex 1 {m}
  6.4008, 0, -0.5,                        !- X,Y,Z Vertex 2 {m}
  0.5, 0, -0.5,                           !- X,Y,Z Vertex 3 {m}
  0.5, 0, -3.5052;                        !- X,Y,Z Vertex 4 {m}

OS:ThermalZone,
  {74fb8b46-e92d-40f8-8d4f-f38ddda835b0}, !- Handle
  sp-1-Zone,                              !- Name
  ,                                       !- Multiplier
  ,                                       !- Ceiling Height {m}
  ,                                       !- Volume {m3}
  ,                                       !- Floor Area {m2}
  ,                                       !- Zone Inside Convection Algorithm
  ,                                       !- Zone Outside Convection Algorithm
  ,                                       !- Zone Conditioning Equipment List Name
  {71d42368-8b8a-4cde-83ee-3e9642d2540f}, !- Zone Air Inlet Port List
  {019a022e-f5d9-403c-9d42-33ec7a6d0b03}, !- Zone Air Exhaust Port List
  {d24b190e-2f04-456a-9627-7a9f2c9bc1ca}, !- Zone Air Node Name
  ,                                       !- Zone Return Air Node Name
  ,                                       !- Primary Daylighting Control Name
  ,                                       !- Fraction of Zone Controlled by Primary Daylighting Control
  ,                                       !- Secondary Daylighting Control Name
  ,                                       !- Fraction of Zone Controlled by Secondary Daylighting Control
  ,                                       !- Illuminance Map Name
  ,                                       !- Group Rendering Name
  ,                                       !- Thermostat Name
  No;                                     !- Use Ideal Air Loads

OS:Node,
  {c2bcf579-f5c2-4917-992d-70c07d0f33c6}, !- Handle
  Node 1,                                 !- Name
  {d24b190e-2f04-456a-9627-7a9f2c9bc1ca}, !- Inlet Port
  ;                                       !- Outlet Port

OS:Connection,
  {d24b190e-2f04-456a-9627-7a9f2c9bc1ca}, !- Handle
  {6b368c5f-cdfe-4126-93fe-03ec85661318}, !- Name
  {74fb8b46-e92d-40f8-8d4f-f38ddda835b0}, !- Source Object
  11,                                     !- Outlet Port
  {c2bcf579-f5c2-4917-992d-70c07d0f33c6}, !- Target Object
  2;                                      !- Inlet Port

OS:PortList,
  {71d42368-8b8a-4cde-83ee-3e9642d2540f}, !- Handle
  Port List 1,                            !- Name
  {74fb8b46-e92d-40f8-8d4f-f38ddda835b0}; !- HVAC Component

OS:PortList,
  {019a022e-f5d9-403c-9d42-33ec7a6d0b03}, !- Handle
  Port List 2,                            !- Name
  {74fb8b46-e92d-40f8-8d4f-f38ddda835b0}; !- HVAC Component

OS:Sizing:Zone,
  {62ebadf4-5f27-40c6-b8b2-678b268ca73f}, !- Handle
  {74fb8b46-e92d-40f8-8d4f-f38ddda835b0}, !- Zone or ZoneList Name
  SupplyAirTemperature,                   !- Zone Cooling Design Supply Air Temperature Input Method
  14,                                     !- Zone Cooling Design Supply Air Temperature {C}
  11.11,                                  !- Zone Cooling Design Supply Air Temperature Difference {deltaC}
  SupplyAirTemperature,                   !- Zone Heating Design Supply Air Temperature Input Method
  40,                                     !- Zone Heating Design Supply Air Temperature {C}
  11.11,                                  !- Zone Heating Design Supply Air Temperature Difference {deltaC}
  0.0085,                                 !- Zone Cooling Design Supply Air Humidity Ratio {kg-H2O/kg-air}
  0.008,                                  !- Zone Heating Design Supply Air Humidity Ratio {kg-H2O/kg-air}
  ,                                       !- Zone Heating Sizing Factor
  ,                                       !- Zone Cooling Sizing Factor
  DesignDay,                              !- Cooling Design Air Flow Method
  ,                                       !- Cooling Design Air Flow Rate {m3/s}
  ,                                       !- Cooling Minimum Air Flow per Zone Floor Area {m3/s-m2}
  ,                                       !- Cooling Minimum Air Flow {m3/s}
  ,                                       !- Cooling Minimum Air Flow Fraction
  DesignDay,                              !- Heating Design Air Flow Method
  ,                                       !- Heating Design Air Flow Rate {m3/s}
  ,                                       !- Heating Maximum Air Flow per Zone Floor Area {m3/s-m2}
  ,                                       !- Heating Maximum Air Flow {m3/s}
  ,                                       !- Heating Maximum Air Flow Fraction
  ,                                       !- Design Zone Air Distribution Effectiveness in Cooling Mode
  ,                                       !- Design Zone Air Distribution Effectiveness in Heating Mode
  No,                                     !- Account for Dedicated Outdoor Air System
  NeutralSupplyAir,                       !- Dedicated Outdoor Air System Control Strategy
  autosize,                               !- Dedicated Outdoor Air Low Setpoint Temperature for Design {C}
  autosize;                               !- Dedicated Outdoor Air High Setpoint Temperature for Design {C}

OS:ZoneHVAC:EquipmentList,
  {311e2d8c-0505-4b86-ac11-67c93279570a}, !- Handle
  Zone HVAC Equipment List 1,             !- Name
  {74fb8b46-e92d-40f8-8d4f-f38ddda835b0}; !- Thermal Zone

