
OS:Version,
  {ac3104d8-1f27-4f64-b0b6-e8c710c54f9b}, !- Handle
  1.9.0;                                  !- Version Identifier

OS:Facility,
  {969d96bf-a406-4065-80e6-7ec5300891ad}; !- Handle

OS:Building,
  {576f432c-fc85-4332-9657-ff03be30d438}, !- Handle
  Building 1,                             !- Name
  ,                                       !- Building Sector Type
  ,                                       !- North Axis {deg}
  ,                                       !- Nominal Floor to Floor Height {m}
  ,                                       !- Space Type Name
  ,                                       !- Default Construction Set Name
  ;                                       !- Default Schedule Set Name

OS:BuildingStory,
  {98b7668f-1f1a-40f1-b2d3-6a1196bc2b38}, !- Handle
  Level B1,                               !- Name
  ,                                       !- Nominal Z Coordinate {m}
  ,                                       !- Nominal Floor to Floor Height {m}
  ,                                       !- Default Construction Set Name
  ,                                       !- Default Schedule Set Name
  ;                                       !- Group Rendering Name

OS:BuildingStory,
  {b0c58a94-5ccd-44e4-bbfd-8e0c94850299}, !- Handle
  Level 1,                                !- Name
  ,                                       !- Nominal Z Coordinate {m}
  ,                                       !- Nominal Floor to Floor Height {m}
  ,                                       !- Default Construction Set Name
  ,                                       !- Default Schedule Set Name
  ;                                       !- Group Rendering Name

OS:BuildingStory,
  {20e89f25-3317-4bd0-b169-f53edafda189}, !- Handle
  Level 2,                                !- Name
  ,                                       !- Nominal Z Coordinate {m}
  3.048,                                  !- Nominal Floor to Floor Height {m}
  ,                                       !- Default Construction Set Name
  ,                                       !- Default Schedule Set Name
  ;                                       !- Group Rendering Name

OS:Space,
  {be982e0b-4bc1-489b-bcee-853662613d0c}, !- Handle
  sp-1-Space,                             !- Name
  ,                                       !- Space Type Name
  ,                                       !- Default Construction Set Name
  ,                                       !- Default Schedule Set Name
  ,                                       !- Direction of Relative North {deg}
  ,                                       !- X Origin {m}
  ,                                       !- Y Origin {m}
  ,                                       !- Z Origin {m}
  {98b7668f-1f1a-40f1-b2d3-6a1196bc2b38}, !- Building Story Name
  {0a93ea4d-1020-49cf-b083-268422794428}; !- Thermal Zone Name

OS:Surface,
  {e976a67a-3e63-4f19-a664-faa373b03932}, !- Handle
  Surface 1,                              !- Name
  Floor,                                  !- Surface Type
  ,                                       !- Construction Name
  {be982e0b-4bc1-489b-bcee-853662613d0c}, !- Space Name
  Ground,                                 !- Outside Boundary Condition
  ,                                       !- Outside Boundary Condition Object
  NoSun,                                  !- Sun Exposure
  NoWind,                                 !- Wind Exposure
  ,                                       !- View Factor to Ground
  ,                                       !- Number of Vertices
  0, 0, -3.6576,                          !- X,Y,Z Vertex 1 {m}
  0, 8.382, -3.6576,                      !- X,Y,Z Vertex 2 {m}
  6.5532, 8.382, -3.6576,                 !- X,Y,Z Vertex 3 {m}
  6.5532, 0, -3.6576;                     !- X,Y,Z Vertex 4 {m}

OS:Surface,
  {8aef3fa4-2700-465f-bca6-35c2be786984}, !- Handle
  Surface 2,                              !- Name
  Wall,                                   !- Surface Type
  ,                                       !- Construction Name
  {be982e0b-4bc1-489b-bcee-853662613d0c}, !- Space Name
  Outdoors,                               !- Outside Boundary Condition
  ,                                       !- Outside Boundary Condition Object
  SunExposed,                             !- Sun Exposure
  WindExposed,                            !- Wind Exposure
  ,                                       !- View Factor to Ground
  ,                                       !- Number of Vertices
  0, 0, -3.6576,                          !- X,Y,Z Vertex 1 {m}
  0, 0, 0,                                !- X,Y,Z Vertex 2 {m}
  0, 8.382, 0,                            !- X,Y,Z Vertex 3 {m}
  0, 8.382, -3.6576;                      !- X,Y,Z Vertex 4 {m}

OS:Surface,
  {a23c5d8f-acb4-4093-98c2-29f7ba057c77}, !- Handle
  Surface 3,                              !- Name
  RoofCeiling,                            !- Surface Type
  ,                                       !- Construction Name
  {be982e0b-4bc1-489b-bcee-853662613d0c}, !- Space Name
  Outdoors,                               !- Outside Boundary Condition
  ,                                       !- Outside Boundary Condition Object
  SunExposed,                             !- Sun Exposure
  WindExposed,                            !- Wind Exposure
  ,                                       !- View Factor to Ground
  ,                                       !- Number of Vertices
  0, 0, 0,                                !- X,Y,Z Vertex 1 {m}
  6.5532, 0, 0,                           !- X,Y,Z Vertex 2 {m}
  6.5532, 8.382, 0,                       !- X,Y,Z Vertex 3 {m}
  0, 8.382, 0;                            !- X,Y,Z Vertex 4 {m}

OS:Surface,
  {0816f63c-5241-48fb-9d95-bf33b2aca280}, !- Handle
  Surface 4,                              !- Name
  Wall,                                   !- Surface Type
  ,                                       !- Construction Name
  {be982e0b-4bc1-489b-bcee-853662613d0c}, !- Space Name
  Outdoors,                               !- Outside Boundary Condition
  ,                                       !- Outside Boundary Condition Object
  SunExposed,                             !- Sun Exposure
  WindExposed,                            !- Wind Exposure
  ,                                       !- View Factor to Ground
  ,                                       !- Number of Vertices
  0, 8.382, -3.6576,                      !- X,Y,Z Vertex 1 {m}
  0, 8.382, 0,                            !- X,Y,Z Vertex 2 {m}
  6.5532, 8.382, 0,                       !- X,Y,Z Vertex 3 {m}
  6.5532, 8.382, -3.6576;                 !- X,Y,Z Vertex 4 {m}

OS:Surface,
  {144d2285-85d8-4b7f-bded-8b9933f19a7e}, !- Handle
  Surface 5,                              !- Name
  Wall,                                   !- Surface Type
  ,                                       !- Construction Name
  {be982e0b-4bc1-489b-bcee-853662613d0c}, !- Space Name
  Outdoors,                               !- Outside Boundary Condition
  ,                                       !- Outside Boundary Condition Object
  SunExposed,                             !- Sun Exposure
  WindExposed,                            !- Wind Exposure
  ,                                       !- View Factor to Ground
  ,                                       !- Number of Vertices
  6.5532, 8.382, -3.6576,                 !- X,Y,Z Vertex 1 {m}
  6.5532, 8.382, 0,                       !- X,Y,Z Vertex 2 {m}
  6.5532, 0, 0,                           !- X,Y,Z Vertex 3 {m}
  6.5532, 0, -3.6576;                     !- X,Y,Z Vertex 4 {m}

OS:Surface,
  {5bd9b638-01b2-41f0-a9e1-094e3365ab33}, !- Handle
  Surface 6,                              !- Name
  Wall,                                   !- Surface Type
  ,                                       !- Construction Name
  {be982e0b-4bc1-489b-bcee-853662613d0c}, !- Space Name
  Outdoors,                               !- Outside Boundary Condition
  ,                                       !- Outside Boundary Condition Object
  SunExposed,                             !- Sun Exposure
  WindExposed,                            !- Wind Exposure
  ,                                       !- View Factor to Ground
  ,                                       !- Number of Vertices
  6.5532, 0, -3.6576,                     !- X,Y,Z Vertex 1 {m}
  6.5532, 0, 0,                           !- X,Y,Z Vertex 2 {m}
  0, 0, 0,                                !- X,Y,Z Vertex 3 {m}
  0, 0, -3.6576;                          !- X,Y,Z Vertex 4 {m}

OS:SubSurface,
  {d6bb61dd-f6a8-48a9-b785-2e04b0dafd4d}, !- Handle
  Sub Surface 1,                          !- Name
  FixedWindow,                            !- Sub Surface Type
  ,                                       !- Construction Name
  {5bd9b638-01b2-41f0-a9e1-094e3365ab33}, !- Surface Name
  ,                                       !- Outside Boundary Condition Object
  ,                                       !- View Factor to Ground
  ,                                       !- Shading Control Name
  ,                                       !- Frame and Divider Name
  ,                                       !- Multiplier
  ,                                       !- Number of Vertices
  6.4008, 0, -3.5052,                     !- X,Y,Z Vertex 1 {m}
  6.4008, 0, -0.5,                        !- X,Y,Z Vertex 2 {m}
  0.5, 0, -0.5,                           !- X,Y,Z Vertex 3 {m}
  0.5, 0, -3.5052;                        !- X,Y,Z Vertex 4 {m}

OS:ThermalZone,
  {0a93ea4d-1020-49cf-b083-268422794428}, !- Handle
  sp-1-Zone,                              !- Name
  ,                                       !- Multiplier
  ,                                       !- Ceiling Height {m}
  ,                                       !- Volume {m3}
  ,                                       !- Floor Area {m2}
  ,                                       !- Zone Inside Convection Algorithm
  ,                                       !- Zone Outside Convection Algorithm
  ,                                       !- Zone Conditioning Equipment List Name
  {9e91b2c8-d2f4-4368-90c8-9e397a45611b}, !- Zone Air Inlet Port List
  {d024e8f3-c5a0-48a8-82d7-db125b46bf34}, !- Zone Air Exhaust Port List
  {318e71bd-d3ec-4fcb-a7a5-fb51f1a65d65}, !- Zone Air Node Name
  ,                                       !- Zone Return Air Node Name
  ,                                       !- Primary Daylighting Control Name
  ,                                       !- Fraction of Zone Controlled by Primary Daylighting Control
  ,                                       !- Secondary Daylighting Control Name
  ,                                       !- Fraction of Zone Controlled by Secondary Daylighting Control
  ,                                       !- Illuminance Map Name
  ,                                       !- Group Rendering Name
  ,                                       !- Thermostat Name
  No;                                     !- Use Ideal Air Loads

OS:Node,
  {35f0041c-fbb8-4b88-b679-ce5dce0b78ef}, !- Handle
  Node 1,                                 !- Name
  {318e71bd-d3ec-4fcb-a7a5-fb51f1a65d65}, !- Inlet Port
  ;                                       !- Outlet Port

OS:Connection,
  {318e71bd-d3ec-4fcb-a7a5-fb51f1a65d65}, !- Handle
  {ad4548b2-a62e-4650-a1a4-08193cc3a610}, !- Name
  {0a93ea4d-1020-49cf-b083-268422794428}, !- Source Object
  11,                                     !- Outlet Port
  {35f0041c-fbb8-4b88-b679-ce5dce0b78ef}, !- Target Object
  2;                                      !- Inlet Port

OS:PortList,
  {9e91b2c8-d2f4-4368-90c8-9e397a45611b}, !- Handle
  Port List 1,                            !- Name
  {0a93ea4d-1020-49cf-b083-268422794428}; !- HVAC Component

OS:PortList,
  {d024e8f3-c5a0-48a8-82d7-db125b46bf34}, !- Handle
  Port List 2,                            !- Name
  {0a93ea4d-1020-49cf-b083-268422794428}; !- HVAC Component

OS:Sizing:Zone,
  {13ea71ff-3076-4b31-96de-d3fc67bb1a23}, !- Handle
  {0a93ea4d-1020-49cf-b083-268422794428}, !- Zone or ZoneList Name
  14,                                     !- Zone Cooling Design Supply Air Temperature {C}
  40,                                     !- Zone Heating Design Supply Air Temperature {C}
  0.0085,                                 !- Zone Cooling Design Supply Air Humidity Ratio {kg-H2O/kg-air}
  0.008,                                  !- Zone Heating Design Supply Air Humidity Ratio {kg-H2O/kg-air}
  ,                                       !- Zone Heating Sizing Factor
  ,                                       !- Zone Cooling Sizing Factor
  DesignDay,                              !- Cooling Design Air Flow Method
  ,                                       !- Cooling Design Air Flow Rate {m3/s}
  ,                                       !- Cooling Minimum Air Flow per Zone Floor Area {m3/s-m2}
  ,                                       !- Cooling Minimum Air Flow {m3/s}
  ,                                       !- Cooling Minimum Air Flow Fraction
  DesignDay,                              !- Heating Design Air Flow Method
  ,                                       !- Heating Design Air Flow Rate {m3/s}
  ,                                       !- Heating Maximum Air Flow per Zone Floor Area {m3/s-m2}
  ,                                       !- Heating Maximum Air Flow {m3/s}
  ,                                       !- Heating Maximum Air Flow Fraction
  ,                                       !- Design Zone Air Distribution Effectiveness in Cooling Mode
  ;                                       !- Design Zone Air Distribution Effectiveness in Heating Mode

OS:ZoneHVAC:EquipmentList,
  {99c9eb9b-4a94-4042-8c44-8eb605f875cc}, !- Handle
  Zone HVAC Equipment List 1,             !- Name
  {0a93ea4d-1020-49cf-b083-268422794428}; !- Thermal Zone

