
OS:Version,
  {cd9b58b4-1acf-4266-8266-c95cb42eaede}, !- Handle
  1.9.0;                                  !- Version Identifier

OS:Facility,
  {3d76df95-01b4-472c-ada1-eb2b9b7c352d}; !- Handle

OS:Building,
  {d948cfca-f24a-493c-9847-67016c5fc10a}, !- Handle
  Building 1,                             !- Name
  ,                                       !- Building Sector Type
  ,                                       !- North Axis {deg}
  ,                                       !- Nominal Floor to Floor Height {m}
  ,                                       !- Space Type Name
  ,                                       !- Default Construction Set Name
  ;                                       !- Default Schedule Set Name

OS:BuildingStory,
  {f95a552e-4763-4751-befd-afc64690c18d}, !- Handle
  Level B1,                               !- Name
  ,                                       !- Nominal Z Coordinate {m}
  ,                                       !- Nominal Floor to Floor Height {m}
  ,                                       !- Default Construction Set Name
  ,                                       !- Default Schedule Set Name
  ;                                       !- Group Rendering Name

OS:BuildingStory,
  {58bb0850-d10b-4a06-b9f4-653039206882}, !- Handle
  Level 1,                                !- Name
  ,                                       !- Nominal Z Coordinate {m}
  ,                                       !- Nominal Floor to Floor Height {m}
  ,                                       !- Default Construction Set Name
  ,                                       !- Default Schedule Set Name
  ;                                       !- Group Rendering Name

OS:BuildingStory,
  {b5466c5e-7034-4468-ae28-d0f91b313173}, !- Handle
  Level 2,                                !- Name
  ,                                       !- Nominal Z Coordinate {m}
  3.048,                                  !- Nominal Floor to Floor Height {m}
  ,                                       !- Default Construction Set Name
  ,                                       !- Default Schedule Set Name
  ;                                       !- Group Rendering Name

OS:Space,
  {93c3dc91-e57c-4e71-aebc-83d133b58de8}, !- Handle
  sp-1-Space,                             !- Name
  ,                                       !- Space Type Name
  ,                                       !- Default Construction Set Name
  ,                                       !- Default Schedule Set Name
  ,                                       !- Direction of Relative North {deg}
  ,                                       !- X Origin {m}
  ,                                       !- Y Origin {m}
  ,                                       !- Z Origin {m}
  {f95a552e-4763-4751-befd-afc64690c18d}, !- Building Story Name
  {2ea7265e-5b78-4694-a1bd-3c86ffb7edaa}; !- Thermal Zone Name

OS:Surface,
  {e1eaf530-f9f6-4498-85b2-083559891a75}, !- Handle
  Surface 1,                              !- Name
  Floor,                                  !- Surface Type
  ,                                       !- Construction Name
  {93c3dc91-e57c-4e71-aebc-83d133b58de8}, !- Space Name
  Ground,                                 !- Outside Boundary Condition
  ,                                       !- Outside Boundary Condition Object
  NoSun,                                  !- Sun Exposure
  NoWind,                                 !- Wind Exposure
  ,                                       !- View Factor to Ground
  ,                                       !- Number of Vertices
  0, 0, -3.6576,                          !- X,Y,Z Vertex 1 {m}
  0, 8.382, -3.6576,                      !- X,Y,Z Vertex 2 {m}
  6.5532, 8.382, -3.6576,                 !- X,Y,Z Vertex 3 {m}
  6.5532, 0, -3.6576;                     !- X,Y,Z Vertex 4 {m}

OS:Surface,
  {5b0f3816-5ff6-4e16-b2d0-bfd8cd9abde5}, !- Handle
  Surface 2,                              !- Name
  Wall,                                   !- Surface Type
  ,                                       !- Construction Name
  {93c3dc91-e57c-4e71-aebc-83d133b58de8}, !- Space Name
  Outdoors,                               !- Outside Boundary Condition
  ,                                       !- Outside Boundary Condition Object
  SunExposed,                             !- Sun Exposure
  WindExposed,                            !- Wind Exposure
  ,                                       !- View Factor to Ground
  ,                                       !- Number of Vertices
  0, 0, -3.6576,                          !- X,Y,Z Vertex 1 {m}
  0, 0, 0,                                !- X,Y,Z Vertex 2 {m}
  0, 8.382, 0,                            !- X,Y,Z Vertex 3 {m}
  0, 8.382, -3.6576;                      !- X,Y,Z Vertex 4 {m}

OS:Surface,
  {ca9936aa-bd32-4846-a91d-84be75408f6d}, !- Handle
  Surface 3,                              !- Name
  RoofCeiling,                            !- Surface Type
  ,                                       !- Construction Name
  {93c3dc91-e57c-4e71-aebc-83d133b58de8}, !- Space Name
  Outdoors,                               !- Outside Boundary Condition
  ,                                       !- Outside Boundary Condition Object
  SunExposed,                             !- Sun Exposure
  WindExposed,                            !- Wind Exposure
  ,                                       !- View Factor to Ground
  ,                                       !- Number of Vertices
  0, 0, 0,                                !- X,Y,Z Vertex 1 {m}
  6.5532, 0, 0,                           !- X,Y,Z Vertex 2 {m}
  6.5532, 8.382, 0,                       !- X,Y,Z Vertex 3 {m}
  0, 8.382, 0;                            !- X,Y,Z Vertex 4 {m}

OS:Surface,
  {07a70157-18da-4585-b143-592eca62860e}, !- Handle
  Surface 4,                              !- Name
  Wall,                                   !- Surface Type
  ,                                       !- Construction Name
  {93c3dc91-e57c-4e71-aebc-83d133b58de8}, !- Space Name
  Outdoors,                               !- Outside Boundary Condition
  ,                                       !- Outside Boundary Condition Object
  SunExposed,                             !- Sun Exposure
  WindExposed,                            !- Wind Exposure
  ,                                       !- View Factor to Ground
  ,                                       !- Number of Vertices
  0, 8.382, -3.6576,                      !- X,Y,Z Vertex 1 {m}
  0, 8.382, 0,                            !- X,Y,Z Vertex 2 {m}
  6.5532, 8.382, 0,                       !- X,Y,Z Vertex 3 {m}
  6.5532, 8.382, -3.6576;                 !- X,Y,Z Vertex 4 {m}

OS:Surface,
  {bf9181a7-dc8b-4c3e-8e9d-bbf2d65064f3}, !- Handle
  Surface 5,                              !- Name
  Wall,                                   !- Surface Type
  ,                                       !- Construction Name
  {93c3dc91-e57c-4e71-aebc-83d133b58de8}, !- Space Name
  Outdoors,                               !- Outside Boundary Condition
  ,                                       !- Outside Boundary Condition Object
  SunExposed,                             !- Sun Exposure
  WindExposed,                            !- Wind Exposure
  ,                                       !- View Factor to Ground
  ,                                       !- Number of Vertices
  6.5532, 8.382, -3.6576,                 !- X,Y,Z Vertex 1 {m}
  6.5532, 8.382, 0,                       !- X,Y,Z Vertex 2 {m}
  6.5532, 0, 0,                           !- X,Y,Z Vertex 3 {m}
  6.5532, 0, -3.6576;                     !- X,Y,Z Vertex 4 {m}

OS:Surface,
  {5d05c416-6cc9-4c0b-a294-02bf938c57f2}, !- Handle
  Surface 6,                              !- Name
  Wall,                                   !- Surface Type
  ,                                       !- Construction Name
  {93c3dc91-e57c-4e71-aebc-83d133b58de8}, !- Space Name
  Outdoors,                               !- Outside Boundary Condition
  ,                                       !- Outside Boundary Condition Object
  SunExposed,                             !- Sun Exposure
  WindExposed,                            !- Wind Exposure
  ,                                       !- View Factor to Ground
  ,                                       !- Number of Vertices
  6.5532, 0, -3.6576,                     !- X,Y,Z Vertex 1 {m}
  6.5532, 0, 0,                           !- X,Y,Z Vertex 2 {m}
  0, 0, 0,                                !- X,Y,Z Vertex 3 {m}
  0, 0, -3.6576;                          !- X,Y,Z Vertex 4 {m}

OS:SubSurface,
  {6129cbd7-1fd9-433a-bd81-96111dbf4151}, !- Handle
  Sub Surface 1,                          !- Name
  FixedWindow,                            !- Sub Surface Type
  ,                                       !- Construction Name
  {5d05c416-6cc9-4c0b-a294-02bf938c57f2}, !- Surface Name
  ,                                       !- Outside Boundary Condition Object
  ,                                       !- View Factor to Ground
  ,                                       !- Shading Control Name
  ,                                       !- Frame and Divider Name
  ,                                       !- Multiplier
  ,                                       !- Number of Vertices
  6.4008, 0, -3.5052,                     !- X,Y,Z Vertex 1 {m}
  6.4008, 0, -0.5,                        !- X,Y,Z Vertex 2 {m}
  0.5, 0, -0.5,                           !- X,Y,Z Vertex 3 {m}
  0.5, 0, -3.5052;                        !- X,Y,Z Vertex 4 {m}

OS:ThermalZone,
  {2ea7265e-5b78-4694-a1bd-3c86ffb7edaa}, !- Handle
  sp-1-Zone,                              !- Name
  ,                                       !- Multiplier
  ,                                       !- Ceiling Height {m}
  ,                                       !- Volume {m3}
  ,                                       !- Floor Area {m2}
  ,                                       !- Zone Inside Convection Algorithm
  ,                                       !- Zone Outside Convection Algorithm
  ,                                       !- Zone Conditioning Equipment List Name
  {460f6b67-2ed3-4fbb-ad63-89695878e180}, !- Zone Air Inlet Port List
  {259f81d4-301d-4c91-8462-e77e987b608e}, !- Zone Air Exhaust Port List
  {bce93e06-2862-4152-828d-b0bfe530674a}, !- Zone Air Node Name
  ,                                       !- Zone Return Air Node Name
  ,                                       !- Primary Daylighting Control Name
  ,                                       !- Fraction of Zone Controlled by Primary Daylighting Control
  ,                                       !- Secondary Daylighting Control Name
  ,                                       !- Fraction of Zone Controlled by Secondary Daylighting Control
  ,                                       !- Illuminance Map Name
  ,                                       !- Group Rendering Name
  ,                                       !- Thermostat Name
  No;                                     !- Use Ideal Air Loads

OS:Node,
  {9d80a051-7031-4b87-9158-8dd6361790dc}, !- Handle
  Node 1,                                 !- Name
  {bce93e06-2862-4152-828d-b0bfe530674a}, !- Inlet Port
  ;                                       !- Outlet Port

OS:Connection,
  {bce93e06-2862-4152-828d-b0bfe530674a}, !- Handle
  {349865cf-6b78-4daa-9020-a919821cd9f0}, !- Name
  {2ea7265e-5b78-4694-a1bd-3c86ffb7edaa}, !- Source Object
  11,                                     !- Outlet Port
  {9d80a051-7031-4b87-9158-8dd6361790dc}, !- Target Object
  2;                                      !- Inlet Port

OS:PortList,
  {460f6b67-2ed3-4fbb-ad63-89695878e180}, !- Handle
  Port List 1,                            !- Name
  {2ea7265e-5b78-4694-a1bd-3c86ffb7edaa}; !- HVAC Component

OS:PortList,
  {259f81d4-301d-4c91-8462-e77e987b608e}, !- Handle
  Port List 2,                            !- Name
  {2ea7265e-5b78-4694-a1bd-3c86ffb7edaa}; !- HVAC Component

OS:Sizing:Zone,
  {1a9568d6-f961-47ec-9242-7030e1607e27}, !- Handle
  {2ea7265e-5b78-4694-a1bd-3c86ffb7edaa}, !- Zone or ZoneList Name
  14,                                     !- Zone Cooling Design Supply Air Temperature {C}
  40,                                     !- Zone Heating Design Supply Air Temperature {C}
  0.0085,                                 !- Zone Cooling Design Supply Air Humidity Ratio {kg-H2O/kg-air}
  0.008,                                  !- Zone Heating Design Supply Air Humidity Ratio {kg-H2O/kg-air}
  ,                                       !- Zone Heating Sizing Factor
  ,                                       !- Zone Cooling Sizing Factor
  DesignDay,                              !- Cooling Design Air Flow Method
  ,                                       !- Cooling Design Air Flow Rate {m3/s}
  ,                                       !- Cooling Minimum Air Flow per Zone Floor Area {m3/s-m2}
  ,                                       !- Cooling Minimum Air Flow {m3/s}
  ,                                       !- Cooling Minimum Air Flow Fraction
  DesignDay,                              !- Heating Design Air Flow Method
  ,                                       !- Heating Design Air Flow Rate {m3/s}
  ,                                       !- Heating Maximum Air Flow per Zone Floor Area {m3/s-m2}
  ,                                       !- Heating Maximum Air Flow {m3/s}
  ,                                       !- Heating Maximum Air Flow Fraction
  ,                                       !- Design Zone Air Distribution Effectiveness in Cooling Mode
  ;                                       !- Design Zone Air Distribution Effectiveness in Heating Mode

OS:ZoneHVAC:EquipmentList,
  {e320b166-f139-460e-85c8-8a964ecf731e}, !- Handle
  Zone HVAC Equipment List 1,             !- Name
  {2ea7265e-5b78-4694-a1bd-3c86ffb7edaa}; !- Thermal Zone

