
OS:Version,
  {5754a753-23bd-4f1b-b855-48b115d06067}, !- Handle
  1.12.2;                                 !- Version Identifier

OS:SpaceType,
  {9e35ecd8-dd76-4d93-9a4a-aa7d223eba92}, !- Handle
  189.1-2009 - Office - Lobby - CZ4-8,    !- Name
  ,                                       !- Default Construction Set Name
  {1787f78a-8c5d-47df-b1b7-be4e9fd02af2}, !- Default Schedule Set Name
  {36201d1e-b33c-46d3-972c-c736e1c62ffb}, !- Group Rendering Name
  {b05f447a-7454-4854-8d49-fd232d9e173b}, !- Design Specification Outdoor Air Object Name
  Office,                                 !- Standards Building Type
  Lobby;                                  !- Standards Space Type

OS:DefaultScheduleSet,
  {1787f78a-8c5d-47df-b1b7-be4e9fd02af2}, !- Handle
  189.1-2009 - Office - Lobby - CZ4-8 Schedule Set, !- Name
  ,                                       !- Hours of Operation Schedule Name
  {c4c763e3-ab81-4905-ac45-4fc4c874f74b}, !- Number of People Schedule Name
  {2da04a80-4eab-4879-9957-c8a74be4818f}, !- People Activity Level Schedule Name
  {2ca76692-77ad-41b4-b199-920aac07e9a0}, !- Lighting Schedule Name
  {580257e2-fc14-41b2-88b9-810df8835e5f}, !- Electric Equipment Schedule Name
  ,                                       !- Gas Equipment Schedule Name
  ,                                       !- Hot Water Equipment Schedule Name
  {51d03f07-2221-4fc3-9af1-3b01df271599}, !- Infiltration Schedule Name
  ,                                       !- Steam Equipment Schedule Name
  ;                                       !- Other Equipment Schedule Name

OS:Rendering:Color,
  {36201d1e-b33c-46d3-972c-c736e1c62ffb}, !- Handle
  Rendering Color 23,                     !- Name
  230,                                    !- Rendering Red Value
  157,                                    !- Rendering Green Value
  120;                                    !- Rendering Blue Value

OS:DesignSpecification:OutdoorAir,
  {b05f447a-7454-4854-8d49-fd232d9e173b}, !- Handle
  189.1-2009 - Office - Lobby - CZ4-8 Ventilation, !- Name
  Sum,                                    !- Outdoor Air Method
  0.007079211648,                         !- Outdoor Air Flow per Person {m3/s-person}
  ,                                       !- Outdoor Air Flow per Floor Area {m3/s-m2}
  ,                                       !- Outdoor Air Flow Rate {m3/s}
  ,                                       !- Outdoor Air Flow Air Changes per Hour {1/hr}
  ;                                       !- Outdoor Air Flow Rate Fraction Schedule Name

OS:Schedule:Ruleset,
  {c4c763e3-ab81-4905-ac45-4fc4c874f74b}, ! Handle
  Office Misc Occ,                        ! Name
  {d9ad5e09-3842-4f46-a4ed-15ab15eaa0df}, ! Schedule Type Limits Name
  {a22d4916-e180-4674-8a18-b090c46235ee}, ! Default Day Schedule Name
  {ca1f9a0a-4496-48c5-9f60-5cb920861a0d}, ! Summer Design Day Schedule Name
  {0194b36d-4d98-4dd4-ada1-a0a8846496d2}; ! Winter Design Day Schedule Name

OS:Schedule:Day,
  {a22d4916-e180-4674-8a18-b090c46235ee}, ! Handle
  Office Bldg Occ Default Schedule 1,     ! Name
  {d9ad5e09-3842-4f46-a4ed-15ab15eaa0df}, ! Schedule Type Limits Name
  ,                                       ! Interpolate to Timestep
  6,                                      !- Hour 1
  0,                                      !- Minute 1
  0,                                      !- Value Until Time 1
  7,                                      !- Hour 2
  0,                                      !- Minute 2
  0.100000001490116,                      !- Value Until Time 2
  8,                                      !- Hour 3
  0,                                      !- Minute 3
  0.200000002980232,                      !- Value Until Time 3
  20,                                     !- Hour 4
  0,                                      !- Minute 4
  0.400000005960464,                      !- Value Until Time 4
  22,                                     !- Hour 5
  0,                                      !- Minute 5
  0.100000001490116,                      !- Value Until Time 5
  24,                                     !- Hour 6
  0,                                      !- Minute 6
  0.0500000007450581;                     !- Value Until Time 6

OS:Schedule:Day,
  {ca1f9a0a-4496-48c5-9f60-5cb920861a0d}, ! Handle
  Office Bldg Occ Summer Design Day 1,    ! Name
  {d9ad5e09-3842-4f46-a4ed-15ab15eaa0df}, ! Schedule Type Limits Name
  ,                                       ! Interpolate to Timestep
  6,                                      ! Hour 1
  0,                                      ! Minute 1
  0,                                      ! Value Until Time 1
  22,                                     ! Hour 2
  0,                                      ! Minute 2
  1,                                      ! Value Until Time 2
  24,                                     ! Hour 3
  0,                                      ! Minute 3
  0.050000000000000003;                   ! Value Until Time 3

OS:Schedule:Day,
  {0194b36d-4d98-4dd4-ada1-a0a8846496d2}, ! Handle
  Office Bldg Occ Winter Design Day 1,    ! Name
  {d9ad5e09-3842-4f46-a4ed-15ab15eaa0df}, ! Schedule Type Limits Name
  ,                                       ! Interpolate to Timestep
  24,                                     ! Hour 1
  0,                                      ! Minute 1
  0;                                      ! Value Until Time 1

OS:Schedule:Rule,
  {ed9cf4b7-fb89-4e0a-94c9-5f8f0f759a5a}, ! Handle
  Office Misc Occ Rule 1,                 ! Name
  {c4c763e3-ab81-4905-ac45-4fc4c874f74b}, ! Schedule Ruleset Name
  0,                                      ! Rule Order
  {f949e7e0-e97a-40be-a841-7dd31c390883}, ! Day Schedule Name
  Yes,                                    ! Apply Sunday
  No,                                     ! Apply Monday
  No,                                     ! Apply Tuesday
  No,                                     ! Apply Wednesday
  No,                                     ! Apply Thursday
  No,                                     ! Apply Friday
  No,                                     ! Apply Saturday
  ,                                       ! Apply Holiday
  DateRange,                              ! Date Specification Type
  1,                                      ! Start Month
  1,                                      ! Start Day
  12,                                     ! End Month
  31;                                     ! End Day

OS:Schedule:Rule,
  {e277ebd5-a73b-42da-bb0c-6024272b2c20}, ! Handle
  Office Misc Occ Rule 2,                 ! Name
  {c4c763e3-ab81-4905-ac45-4fc4c874f74b}, ! Schedule Ruleset Name
  1,                                      ! Rule Order
  {5c8d5a25-2d8b-4b87-b285-2a43ba82e234}, ! Day Schedule Name
  No,                                     ! Apply Sunday
  No,                                     ! Apply Monday
  No,                                     ! Apply Tuesday
  No,                                     ! Apply Wednesday
  No,                                     ! Apply Thursday
  No,                                     ! Apply Friday
  Yes,                                    ! Apply Saturday
  ,                                       ! Apply Holiday
  DateRange,                              ! Date Specification Type
  1,                                      ! Start Month
  1,                                      ! Start Day
  12,                                     ! End Month
  31;                                     ! End Day

OS:Schedule:Day,
  {f949e7e0-e97a-40be-a841-7dd31c390883}, ! Handle
  Office Bldg Occ Rule 1 Day Schedule 1,  ! Name
  {d9ad5e09-3842-4f46-a4ed-15ab15eaa0df}, ! Schedule Type Limits Name
  ,                                       ! Interpolate to Timestep
  24,                                     ! Hour 1
  0,                                      ! Minute 1
  0;                                      ! Value Until Time 1

OS:Schedule:Day,
  {5c8d5a25-2d8b-4b87-b285-2a43ba82e234}, ! Handle
  Office Bldg Occ Rule 2 Day Schedule 1,  ! Name
  {d9ad5e09-3842-4f46-a4ed-15ab15eaa0df}, ! Schedule Type Limits Name
  ,                                       ! Interpolate to Timestep
  6,                                      !- Hour 1
  0,                                      !- Minute 1
  0,                                      !- Value Until Time 1
  8,                                      !- Hour 2
  0,                                      !- Minute 2
  0.100000001490116,                      !- Value Until Time 2
  14,                                     !- Hour 3
  0,                                      !- Minute 3
  0.25,                                   !- Value Until Time 3
  17,                                     !- Hour 4
  0,                                      !- Minute 4
  0.100000001490116,                      !- Value Until Time 4
  24,                                     !- Hour 5
  0,                                      !- Minute 5
  0;                                      !- Value Until Time 5

OS:Schedule:Ruleset,
  {2da04a80-4eab-4879-9957-c8a74be4818f}, ! Handle
  Office Activity,                        ! Name
  {a6726921-4819-4d75-9074-1b2b4ca806c8}, ! Schedule Type Limits Name
  {1dcb21d0-ea10-47b5-8be7-6b0fbfaf97f5}, ! Default Day Schedule Name
  {1e96aa43-3f30-423a-a3f7-6f68f8071ec8}, ! Summer Design Day Schedule Name
  {abbc0b1d-2a79-4801-bcb8-595e8dce0b18}; ! Winter Design Day Schedule Name

OS:Schedule:Day,
  {1dcb21d0-ea10-47b5-8be7-6b0fbfaf97f5}, ! Handle
  Office Activity Default Schedule,       ! Name
  {a6726921-4819-4d75-9074-1b2b4ca806c8}, ! Schedule Type Limits Name
  ,                                       ! Interpolate to Timestep
  24,                                     !- Hour 1
  0,                                      !- Minute 1
  132;                                    !- Value Until Time 1

OS:Schedule:Day,
  {1e96aa43-3f30-423a-a3f7-6f68f8071ec8}, ! Handle
  Office Activity Summer Design Day,      ! Name
  {a6726921-4819-4d75-9074-1b2b4ca806c8}, ! Schedule Type Limits Name
  ,                                       ! Interpolate to Timestep
  24,                                     !- Hour 1
  0,                                      !- Minute 1
  132;                                    !- Value Until Time 1

OS:Schedule:Day,
  {abbc0b1d-2a79-4801-bcb8-595e8dce0b18}, ! Handle
  Office Activity Winter Design Day,      ! Name
  {a6726921-4819-4d75-9074-1b2b4ca806c8}, ! Schedule Type Limits Name
  ,                                       ! Interpolate to Timestep
  24,                                     !- Hour 1
  0,                                      !- Minute 1
  132;                                    !- Value Until Time 1

OS:Schedule:Ruleset,
  {2ca76692-77ad-41b4-b199-920aac07e9a0}, ! Handle
  Office Bldg Light,                      ! Name
  {d9ad5e09-3842-4f46-a4ed-15ab15eaa0df}, ! Schedule Type Limits Name
  {701042c2-de82-4b61-bf85-c6e23b84a552}, ! Default Day Schedule Name
  {c1bc8e03-14d9-4d99-b952-1501a57bb326}, ! Summer Design Day Schedule Name
  {c22c6077-2405-412e-aaf2-1576345c5677}; ! Winter Design Day Schedule Name

OS:Schedule:Day,
  {701042c2-de82-4b61-bf85-c6e23b84a552}, ! Handle
  Office Bldg Light Default Schedule,     ! Name
  {d9ad5e09-3842-4f46-a4ed-15ab15eaa0df}, ! Schedule Type Limits Name
  ,                                       ! Interpolate to Timestep
  5,                                      !- Hour 1
  0,                                      !- Minute 1
  0.05,                                   !- Value Until Time 1
  7,                                      !- Hour 2
  0,                                      !- Minute 2
  0.1,                                    !- Value Until Time 2
  8,                                      !- Hour 3
  0,                                      !- Minute 3
  0.3,                                    !- Value Until Time 3
  17,                                     !- Hour 4
  0,                                      !- Minute 4
  0.9,                                    !- Value Until Time 4
  18,                                     !- Hour 5
  0,                                      !- Minute 5
  0.7,                                    !- Value Until Time 5
  20,                                     !- Hour 6
  0,                                      !- Minute 6
  0.5,                                    !- Value Until Time 6
  22,                                     !- Hour 7
  0,                                      !- Minute 7
  0.3,                                    !- Value Until Time 7
  23,                                     !- Hour 8
  0,                                      !- Minute 8
  0.1,                                    !- Value Until Time 8
  24,                                     !- Hour 9
  0,                                      !- Minute 9
  0.05;                                   !- Value Until Time 9

OS:Schedule:Day,
  {c1bc8e03-14d9-4d99-b952-1501a57bb326}, ! Handle
  Office Bldg Light Summer Design Day,    ! Name
  {d9ad5e09-3842-4f46-a4ed-15ab15eaa0df}, ! Schedule Type Limits Name
  ,                                       ! Interpolate to Timestep
  24,                                     ! Hour 1
  0,                                      ! Minute 1
  1;                                      ! Value Until Time 1

OS:Schedule:Day,
  {c22c6077-2405-412e-aaf2-1576345c5677}, ! Handle
  Office Bldg Light Winter Design Day,    ! Name
  {d9ad5e09-3842-4f46-a4ed-15ab15eaa0df}, ! Schedule Type Limits Name
  ,                                       ! Interpolate to Timestep
  24,                                     ! Hour 1
  0,                                      ! Minute 1
  0;                                      ! Value Until Time 1

OS:Schedule:Rule,
  {d87f3172-54a5-4947-b219-7c8ac1e3f77b}, ! Handle
  Office Bldg Light Rule 1,               ! Name
  {2ca76692-77ad-41b4-b199-920aac07e9a0}, ! Schedule Ruleset Name
  0,                                      ! Rule Order
  {d993b5ae-b9ee-48b6-9df7-562d005b8cd4}, ! Day Schedule Name
  Yes,                                    ! Apply Sunday
  No,                                     ! Apply Monday
  No,                                     ! Apply Tuesday
  No,                                     ! Apply Wednesday
  No,                                     ! Apply Thursday
  No,                                     ! Apply Friday
  No,                                     ! Apply Saturday
  ,                                       ! Apply Holiday
  DateRange,                              ! Date Specification Type
  1,                                      ! Start Month
  1,                                      ! Start Day
  12,                                     ! End Month
  31;                                     ! End Day

OS:Schedule:Rule,
  {8266a44d-d34e-4310-b9d7-df263ecddca9}, ! Handle
  Office Bldg Light Rule 2,               ! Name
  {2ca76692-77ad-41b4-b199-920aac07e9a0}, ! Schedule Ruleset Name
  1,                                      ! Rule Order
  {321b8fdf-2f6b-432c-b1bf-e486a9c79152}, ! Day Schedule Name
  No,                                     ! Apply Sunday
  No,                                     ! Apply Monday
  No,                                     ! Apply Tuesday
  No,                                     ! Apply Wednesday
  No,                                     ! Apply Thursday
  No,                                     ! Apply Friday
  Yes,                                    ! Apply Saturday
  ,                                       ! Apply Holiday
  DateRange,                              ! Date Specification Type
  1,                                      ! Start Month
  1,                                      ! Start Day
  12,                                     ! End Month
  31;                                     ! End Day

OS:Schedule:Day,
  {d993b5ae-b9ee-48b6-9df7-562d005b8cd4}, ! Handle
  Office Bldg Light Rule 1 Day Schedule,  ! Name
  {d9ad5e09-3842-4f46-a4ed-15ab15eaa0df}, ! Schedule Type Limits Name
  ,                                       ! Interpolate to Timestep
  24,                                     ! Hour 1
  0,                                      ! Minute 1
  0.050000000000000003;                   ! Value Until Time 1

OS:Schedule:Day,
  {321b8fdf-2f6b-432c-b1bf-e486a9c79152}, ! Handle
  Office Bldg Light Rule 2 Day Schedule,  ! Name
  {d9ad5e09-3842-4f46-a4ed-15ab15eaa0df}, ! Schedule Type Limits Name
  ,                                       ! Interpolate to Timestep
  6,                                      ! Hour 1
  0,                                      ! Minute 1
  0.050000000000000003,                   ! Value Until Time 1
  8,                                      ! Hour 2
  0,                                      ! Minute 2
  0.10000000000000001,                    ! Value Until Time 2
  14,                                     ! Hour 3
  0,                                      ! Minute 3
  0.5,                                    ! Value Until Time 3
  17,                                     ! Hour 4
  0,                                      ! Minute 4
  0.14999999999999999,                    ! Value Until Time 4
  24,                                     ! Hour 5
  0,                                      ! Minute 5
  0.050000000000000003;                   ! Value Until Time 5

OS:Schedule:Ruleset,
  {580257e2-fc14-41b2-88b9-810df8835e5f}, ! Handle
  Office Bldg Equip,                      ! Name
  {d9ad5e09-3842-4f46-a4ed-15ab15eaa0df}, ! Schedule Type Limits Name
  {2597b702-b8ce-495f-8ca1-12ef60eedb67}, ! Default Day Schedule Name
  {1faf810e-040c-4381-82b6-e5168d15c500}, ! Summer Design Day Schedule Name
  {ec6783e8-d62c-4c6c-b345-530f8cd15ebe}; ! Winter Design Day Schedule Name

OS:Schedule:Day,
  {2597b702-b8ce-495f-8ca1-12ef60eedb67}, ! Handle
  Office Bldg Equip Default Schedule,     ! Name
  {d9ad5e09-3842-4f46-a4ed-15ab15eaa0df}, ! Schedule Type Limits Name
  ,                                       ! Interpolate to Timestep
  8,                                      !- Hour 1
  0,                                      !- Minute 1
  0.4,                                    !- Value Until Time 1
  12,                                     !- Hour 2
  0,                                      !- Minute 2
  0.9,                                    !- Value Until Time 2
  13,                                     !- Hour 3
  0,                                      !- Minute 3
  0.8,                                    !- Value Until Time 3
  17,                                     !- Hour 4
  0,                                      !- Minute 4
  0.9,                                    !- Value Until Time 4
  18,                                     !- Hour 5
  0,                                      !- Minute 5
  0.8,                                    !- Value Until Time 5
  20,                                     !- Hour 6
  0,                                      !- Minute 6
  0.6,                                    !- Value Until Time 6
  22,                                     !- Hour 7
  0,                                      !- Minute 7
  0.5,                                    !- Value Until Time 7
  24,                                     !- Hour 8
  0,                                      !- Minute 8
  0.4;                                    !- Value Until Time 8

OS:Schedule:Day,
  {1faf810e-040c-4381-82b6-e5168d15c500}, ! Handle
  Office Bldg Equip Summer Design Day,    ! Name
  {d9ad5e09-3842-4f46-a4ed-15ab15eaa0df}, ! Schedule Type Limits Name
  ,                                       ! Interpolate to Timestep
  24,                                     ! Hour 1
  0,                                      ! Minute 1
  1;                                      ! Value Until Time 1

OS:Schedule:Day,
  {ec6783e8-d62c-4c6c-b345-530f8cd15ebe}, ! Handle
  Office Bldg Equip Winter Design Day,    ! Name
  {d9ad5e09-3842-4f46-a4ed-15ab15eaa0df}, ! Schedule Type Limits Name
  ,                                       ! Interpolate to Timestep
  24,                                     ! Hour 1
  0,                                      ! Minute 1
  0;                                      ! Value Until Time 1

OS:Schedule:Rule,
  {d1d70f7a-e12c-43c3-ba06-9784ede77ab9}, ! Handle
  Office Bldg Equip Rule 1,               ! Name
  {580257e2-fc14-41b2-88b9-810df8835e5f}, ! Schedule Ruleset Name
  0,                                      ! Rule Order
  {f3b0a694-e53d-4a47-bded-ede58ad7c04b}, ! Day Schedule Name
  Yes,                                    ! Apply Sunday
  No,                                     ! Apply Monday
  No,                                     ! Apply Tuesday
  No,                                     ! Apply Wednesday
  No,                                     ! Apply Thursday
  No,                                     ! Apply Friday
  No,                                     ! Apply Saturday
  ,                                       ! Apply Holiday
  DateRange,                              ! Date Specification Type
  1,                                      ! Start Month
  1,                                      ! Start Day
  12,                                     ! End Month
  31;                                     ! End Day

OS:Schedule:Rule,
  {8a39a738-208e-484b-8ce5-904727d22151}, ! Handle
  Office Bldg Equip Rule 2,               ! Name
  {580257e2-fc14-41b2-88b9-810df8835e5f}, ! Schedule Ruleset Name
  1,                                      ! Rule Order
  {70984413-9f70-4262-ab4a-2c3d4b12ceb7}, ! Day Schedule Name
  No,                                     ! Apply Sunday
  No,                                     ! Apply Monday
  No,                                     ! Apply Tuesday
  No,                                     ! Apply Wednesday
  No,                                     ! Apply Thursday
  No,                                     ! Apply Friday
  Yes,                                    ! Apply Saturday
  ,                                       ! Apply Holiday
  DateRange,                              ! Date Specification Type
  1,                                      ! Start Month
  1,                                      ! Start Day
  12,                                     ! End Month
  31;                                     ! End Day

OS:Schedule:Day,
  {f3b0a694-e53d-4a47-bded-ede58ad7c04b}, ! Handle
  Office Bldg Equip Rule 1 Day Schedule,  ! Name
  {d9ad5e09-3842-4f46-a4ed-15ab15eaa0df}, ! Schedule Type Limits Name
  ,                                       ! Interpolate to Timestep
  24,                                     ! Hour 1
  0,                                      ! Minute 1
  0.29999999999999999;                    ! Value Until Time 1

OS:Schedule:Day,
  {70984413-9f70-4262-ab4a-2c3d4b12ceb7}, ! Handle
  Office Bldg Equip Rule 2 Day Schedule,  ! Name
  {d9ad5e09-3842-4f46-a4ed-15ab15eaa0df}, ! Schedule Type Limits Name
  ,                                       ! Interpolate to Timestep
  6,                                      ! Hour 1
  0,                                      ! Minute 1
  0.29999999999999999,                    ! Value Until Time 1
  8,                                      ! Hour 2
  0,                                      ! Minute 2
  0.40000000000000002,                    ! Value Until Time 2
  14,                                     ! Hour 3
  0,                                      ! Minute 3
  0.5,                                    ! Value Until Time 3
  17,                                     ! Hour 4
  0,                                      ! Minute 4
  0.34999999999999998,                    ! Value Until Time 4
  24,                                     ! Hour 5
  0,                                      ! Minute 5
  0.29999999999999999;                    ! Value Until Time 5

OS:Schedule:Ruleset,
  {51d03f07-2221-4fc3-9af1-3b01df271599}, ! Handle
  Office Infil Quarter On,                ! Name
  {d9ad5e09-3842-4f46-a4ed-15ab15eaa0df}, ! Schedule Type Limits Name
  {d7fb8642-bc0e-46b2-a2cc-92f04041ab10}, ! Default Day Schedule Name
  {1af074dc-21b4-49af-a8cd-897ba583095b}, ! Summer Design Day Schedule Name
  {a7a39017-dba2-4da1-9720-7d80557b02ed}; ! Winter Design Day Schedule Name

OS:Schedule:Day,
  {d7fb8642-bc0e-46b2-a2cc-92f04041ab10}, ! Handle
  Office Infil Quarter On Default Schedule, ! Name
  {d9ad5e09-3842-4f46-a4ed-15ab15eaa0df}, ! Schedule Type Limits Name
  ,                                       ! Interpolate to Timestep
  6,                                      !- Hour 1
  0,                                      !- Minute 1
  1,                                      !- Value Until Time 1
  22,                                     !- Hour 2
  0,                                      !- Minute 2
  0.25,                                   !- Value Until Time 2
  24,                                     !- Hour 3
  0,                                      !- Minute 3
  1;                                      !- Value Until Time 3

OS:Schedule:Day,
  {1af074dc-21b4-49af-a8cd-897ba583095b}, ! Handle
  Office Infil Quarter On Summer Design Day, ! Name
  {d9ad5e09-3842-4f46-a4ed-15ab15eaa0df}, ! Schedule Type Limits Name
  ,                                       ! Interpolate to Timestep
  6,                                      ! Hour 1
  0,                                      ! Minute 1
  1,                                      ! Value Until Time 1
  22,                                     ! Hour 2
  0,                                      ! Minute 2
  0.25,                                   ! Value Until Time 2
  24,                                     ! Hour 3
  0,                                      ! Minute 3
  1;                                      ! Value Until Time 3

OS:Schedule:Day,
  {a7a39017-dba2-4da1-9720-7d80557b02ed}, ! Handle
  Office Infil Quarter On Winter Design Day, ! Name
  {d9ad5e09-3842-4f46-a4ed-15ab15eaa0df}, ! Schedule Type Limits Name
  ,                                       ! Interpolate to Timestep
  6,                                      ! Hour 1
  0,                                      ! Minute 1
  1,                                      ! Value Until Time 1
  18,                                     ! Hour 2
  0,                                      ! Minute 2
  0.25,                                   ! Value Until Time 2
  24,                                     ! Hour 3
  0,                                      ! Minute 3
  1;                                      ! Value Until Time 3

OS:Schedule:Rule,
  {636f8af8-ba2c-41f2-8b4e-9125650c12e0}, ! Handle
  Office Infil Quarter On Rule 1,         ! Name
  {51d03f07-2221-4fc3-9af1-3b01df271599}, ! Schedule Ruleset Name
  0,                                      ! Rule Order
  {b75ab3f3-682f-4e38-a8b6-12a2f7d3afab}, ! Day Schedule Name
  Yes,                                    ! Apply Sunday
  No,                                     ! Apply Monday
  No,                                     ! Apply Tuesday
  No,                                     ! Apply Wednesday
  No,                                     ! Apply Thursday
  No,                                     ! Apply Friday
  No,                                     ! Apply Saturday
  ,                                       ! Apply Holiday
  DateRange,                              ! Date Specification Type
  1,                                      ! Start Month
  1,                                      ! Start Day
  12,                                     ! End Month
  31;                                     ! End Day

OS:Schedule:Rule,
  {e03b09a9-c7d5-47f7-b2b8-f778bb6c73e1}, ! Handle
  Office Infil Quarter On Rule 2,         ! Name
  {51d03f07-2221-4fc3-9af1-3b01df271599}, ! Schedule Ruleset Name
  1,                                      ! Rule Order
  {f1a183d8-4453-49a8-8c1d-55d5899b37a7}, ! Day Schedule Name
  No,                                     ! Apply Sunday
  No,                                     ! Apply Monday
  No,                                     ! Apply Tuesday
  No,                                     ! Apply Wednesday
  No,                                     ! Apply Thursday
  No,                                     ! Apply Friday
  Yes,                                    ! Apply Saturday
  ,                                       ! Apply Holiday
  DateRange,                              ! Date Specification Type
  1,                                      ! Start Month
  1,                                      ! Start Day
  12,                                     ! End Month
  31;                                     ! End Day

OS:Schedule:Day,
  {b75ab3f3-682f-4e38-a8b6-12a2f7d3afab}, ! Handle
  Office Infil Quarter On Rule 1 Day Schedule, ! Name
  {d9ad5e09-3842-4f46-a4ed-15ab15eaa0df}, ! Schedule Type Limits Name
  ,                                       ! Interpolate to Timestep
  24,                                     ! Hour 1
  0,                                      ! Minute 1
  1;                                      ! Value Until Time 1

OS:Schedule:Day,
  {f1a183d8-4453-49a8-8c1d-55d5899b37a7}, ! Handle
  Office Infil Quarter On Rule 2 Day Schedule, ! Name
  {d9ad5e09-3842-4f46-a4ed-15ab15eaa0df}, ! Schedule Type Limits Name
  ,                                       ! Interpolate to Timestep
  6,                                      ! Hour 1
  0,                                      ! Minute 1
  1,                                      ! Value Until Time 1
  18,                                     ! Hour 2
  0,                                      ! Minute 2
  0.25,                                   ! Value Until Time 2
  24,                                     ! Hour 3
  0,                                      ! Minute 3
  1;                                      ! Value Until Time 3

OS:ScheduleTypeLimits,
  {d9ad5e09-3842-4f46-a4ed-15ab15eaa0df}, ! Handle
  Fraction,                               ! Name