
OS:Version,
  {9c5f933a-6fb5-4db5-bd8c-bda53ae9b6b2}, !- Handle
  1.12.2;                                 !- Version Identifier

OS:SpaceType,
  {72dd2928-6dd2-4edf-87da-b3170354cc2c}, !- Handle
  189.1-2009 - Office - Lobby - CZ4-8,    !- Name
  ,                                       !- Default Construction Set Name
  {5d9e10ff-f90c-46ad-b114-ec7674be4dfd}, !- Default Schedule Set Name
  {9002d26e-0d12-4979-ab81-f2c18831500e}, !- Group Rendering Name
  {a6cf265e-cc6d-4158-a0b5-6fdfab67a34b}, !- Design Specification Outdoor Air Object Name
  Office,                                 !- Standards Building Type
  Lobby;                                  !- Standards Space Type

OS:DefaultScheduleSet,
  {5d9e10ff-f90c-46ad-b114-ec7674be4dfd}, !- Handle
  189.1-2009 - Office - Lobby - CZ4-8 Schedule Set, !- Name
  ,                                       !- Hours of Operation Schedule Name
  {2c964ad2-812d-4963-b547-9b1797830621}, !- Number of People Schedule Name
  {73497d1d-ac43-456a-a3d1-482cc72b5aac}, !- People Activity Level Schedule Name
  {898d3bab-b917-4e27-ab26-d881e648e497}, !- Lighting Schedule Name
  {64128e5d-d0a5-48c8-8138-213646e471ba}, !- Electric Equipment Schedule Name
  ,                                       !- Gas Equipment Schedule Name
  ,                                       !- Hot Water Equipment Schedule Name
  {79105897-8bcd-40ff-bb07-b512fee78f65}, !- Infiltration Schedule Name
  ,                                       !- Steam Equipment Schedule Name
  ;                                       !- Other Equipment Schedule Name

OS:Rendering:Color,
  {9002d26e-0d12-4979-ab81-f2c18831500e}, !- Handle
  Rendering Color 23,                     !- Name
  230,                                    !- Rendering Red Value
  157,                                    !- Rendering Green Value
  120;                                    !- Rendering Blue Value

OS:DesignSpecification:OutdoorAir,
  {a6cf265e-cc6d-4158-a0b5-6fdfab67a34b}, !- Handle
  189.1-2009 - Office - Lobby - CZ4-8 Ventilation, !- Name
  Sum,                                    !- Outdoor Air Method
  0.007079211648,                         !- Outdoor Air Flow per Person {m3/s-person}
  ,                                       !- Outdoor Air Flow per Floor Area {m3/s-m2}
  ,                                       !- Outdoor Air Flow Rate {m3/s}
  ,                                       !- Outdoor Air Flow Air Changes per Hour {1/hr}
  ;                                       !- Outdoor Air Flow Rate Fraction Schedule Name

OS:Schedule:Ruleset,
  {2c964ad2-812d-4963-b547-9b1797830621}, ! Handle
  Office Misc Occ,                        ! Name
  {053d3e3f-fc9f-414a-a658-9832b5fd0d46}, ! Schedule Type Limits Name
  {7bf67842-c6d7-462f-a862-66872b6cd2dc}, ! Default Day Schedule Name
  {a29729f4-8b1f-4199-a6ee-2a0a7d4a848e}, ! Summer Design Day Schedule Name
  {83f900d1-9b59-4fac-858d-dbdf1b6639e0}; ! Winter Design Day Schedule Name

OS:Schedule:Day,
  {7bf67842-c6d7-462f-a862-66872b6cd2dc}, ! Handle
  Office Bldg Occ Default Schedule 1,     ! Name
  {053d3e3f-fc9f-414a-a658-9832b5fd0d46}, ! Schedule Type Limits Name
  ,                                       ! Interpolate to Timestep
  6,                                      !- Hour 1
  0,                                      !- Minute 1
  0,                                      !- Value Until Time 1
  7,                                      !- Hour 2
  0,                                      !- Minute 2
  0.100000001490116,                      !- Value Until Time 2
  8,                                      !- Hour 3
  0,                                      !- Minute 3
  0.200000002980232,                      !- Value Until Time 3
  20,                                     !- Hour 4
  0,                                      !- Minute 4
  0.400000005960464,                      !- Value Until Time 4
  22,                                     !- Hour 5
  0,                                      !- Minute 5
  0.100000001490116,                      !- Value Until Time 5
  24,                                     !- Hour 6
  0,                                      !- Minute 6
  0.0500000007450581;                     !- Value Until Time 6

OS:Schedule:Day,
  {a29729f4-8b1f-4199-a6ee-2a0a7d4a848e}, ! Handle
  Office Bldg Occ Summer Design Day 1,    ! Name
  {053d3e3f-fc9f-414a-a658-9832b5fd0d46}, ! Schedule Type Limits Name
  ,                                       ! Interpolate to Timestep
  6,                                      ! Hour 1
  0,                                      ! Minute 1
  0,                                      ! Value Until Time 1
  22,                                     ! Hour 2
  0,                                      ! Minute 2
  1,                                      ! Value Until Time 2
  24,                                     ! Hour 3
  0,                                      ! Minute 3
  0.050000000000000003;                   ! Value Until Time 3

OS:Schedule:Day,
  {83f900d1-9b59-4fac-858d-dbdf1b6639e0}, ! Handle
  Office Bldg Occ Winter Design Day 1,    ! Name
  {053d3e3f-fc9f-414a-a658-9832b5fd0d46}, ! Schedule Type Limits Name
  ,                                       ! Interpolate to Timestep
  24,                                     ! Hour 1
  0,                                      ! Minute 1
  0;                                      ! Value Until Time 1

OS:Schedule:Rule,
  {b13bf537-c849-4ccc-98fa-8619bf4cfd4b}, ! Handle
  Office Misc Occ Rule 1,                 ! Name
  {2c964ad2-812d-4963-b547-9b1797830621}, ! Schedule Ruleset Name
  0,                                      ! Rule Order
  {07e3eaca-b239-4cef-a476-29619f29ad84}, ! Day Schedule Name
  Yes,                                    ! Apply Sunday
  No,                                     ! Apply Monday
  No,                                     ! Apply Tuesday
  No,                                     ! Apply Wednesday
  No,                                     ! Apply Thursday
  No,                                     ! Apply Friday
  No,                                     ! Apply Saturday
  ,                                       ! Apply Holiday
  DateRange,                              ! Date Specification Type
  1,                                      ! Start Month
  1,                                      ! Start Day
  12,                                     ! End Month
  31;                                     ! End Day

OS:Schedule:Rule,
  {64bf1d39-efd7-4396-b531-9fcb966ea1f9}, ! Handle
  Office Misc Occ Rule 2,                 ! Name
  {2c964ad2-812d-4963-b547-9b1797830621}, ! Schedule Ruleset Name
  1,                                      ! Rule Order
  {4c5f554a-d92d-4099-a2d4-4eb4c5ab9f55}, ! Day Schedule Name
  No,                                     ! Apply Sunday
  No,                                     ! Apply Monday
  No,                                     ! Apply Tuesday
  No,                                     ! Apply Wednesday
  No,                                     ! Apply Thursday
  No,                                     ! Apply Friday
  Yes,                                    ! Apply Saturday
  ,                                       ! Apply Holiday
  DateRange,                              ! Date Specification Type
  1,                                      ! Start Month
  1,                                      ! Start Day
  12,                                     ! End Month
  31;                                     ! End Day

OS:Schedule:Day,
  {07e3eaca-b239-4cef-a476-29619f29ad84}, ! Handle
  Office Bldg Occ Rule 1 Day Schedule 1,  ! Name
  {053d3e3f-fc9f-414a-a658-9832b5fd0d46}, ! Schedule Type Limits Name
  ,                                       ! Interpolate to Timestep
  24,                                     ! Hour 1
  0,                                      ! Minute 1
  0;                                      ! Value Until Time 1

OS:Schedule:Day,
  {4c5f554a-d92d-4099-a2d4-4eb4c5ab9f55}, ! Handle
  Office Bldg Occ Rule 2 Day Schedule 1,  ! Name
  {053d3e3f-fc9f-414a-a658-9832b5fd0d46}, ! Schedule Type Limits Name
  ,                                       ! Interpolate to Timestep
  6,                                      !- Hour 1
  0,                                      !- Minute 1
  0,                                      !- Value Until Time 1
  8,                                      !- Hour 2
  0,                                      !- Minute 2
  0.100000001490116,                      !- Value Until Time 2
  14,                                     !- Hour 3
  0,                                      !- Minute 3
  0.25,                                   !- Value Until Time 3
  17,                                     !- Hour 4
  0,                                      !- Minute 4
  0.100000001490116,                      !- Value Until Time 4
  24,                                     !- Hour 5
  0,                                      !- Minute 5
  0;                                      !- Value Until Time 5

OS:Schedule:Ruleset,
  {73497d1d-ac43-456a-a3d1-482cc72b5aac}, ! Handle
  Office Activity,                        ! Name
  {eec73010-56de-4948-af44-8a7a0ba09316}, ! Schedule Type Limits Name
  {11b3e8a5-d832-445f-83df-94939db54c9a}, ! Default Day Schedule Name
  {acb63d21-64da-403f-8703-e4a237fa12b5}, ! Summer Design Day Schedule Name
  {7a75e372-d8f8-4f64-be04-78964b089473}; ! Winter Design Day Schedule Name

OS:Schedule:Day,
  {11b3e8a5-d832-445f-83df-94939db54c9a}, ! Handle
  Office Activity Default Schedule,       ! Name
  {eec73010-56de-4948-af44-8a7a0ba09316}, ! Schedule Type Limits Name
  ,                                       ! Interpolate to Timestep
  24,                                     !- Hour 1
  0,                                      !- Minute 1
  132;                                    !- Value Until Time 1

OS:Schedule:Day,
  {acb63d21-64da-403f-8703-e4a237fa12b5}, ! Handle
  Office Activity Summer Design Day,      ! Name
  {eec73010-56de-4948-af44-8a7a0ba09316}, ! Schedule Type Limits Name
  ,                                       ! Interpolate to Timestep
  24,                                     !- Hour 1
  0,                                      !- Minute 1
  132;                                    !- Value Until Time 1

OS:Schedule:Day,
  {7a75e372-d8f8-4f64-be04-78964b089473}, ! Handle
  Office Activity Winter Design Day,      ! Name
  {eec73010-56de-4948-af44-8a7a0ba09316}, ! Schedule Type Limits Name
  ,                                       ! Interpolate to Timestep
  24,                                     !- Hour 1
  0,                                      !- Minute 1
  132;                                    !- Value Until Time 1

OS:Schedule:Ruleset,
  {898d3bab-b917-4e27-ab26-d881e648e497}, ! Handle
  Office Bldg Light,                      ! Name
  {053d3e3f-fc9f-414a-a658-9832b5fd0d46}, ! Schedule Type Limits Name
  {888db030-3fe1-4184-a1e0-6f3f847aea7a}, ! Default Day Schedule Name
  {573774ec-75f3-48da-84d6-aace93da0967}, ! Summer Design Day Schedule Name
  {1d30e672-541f-4208-a16f-04bf57ce14e4}; ! Winter Design Day Schedule Name

OS:Schedule:Day,
  {888db030-3fe1-4184-a1e0-6f3f847aea7a}, ! Handle
  Office Bldg Light Default Schedule,     ! Name
  {053d3e3f-fc9f-414a-a658-9832b5fd0d46}, ! Schedule Type Limits Name
  ,                                       ! Interpolate to Timestep
  5,                                      !- Hour 1
  0,                                      !- Minute 1
  0.05,                                   !- Value Until Time 1
  7,                                      !- Hour 2
  0,                                      !- Minute 2
  0.1,                                    !- Value Until Time 2
  8,                                      !- Hour 3
  0,                                      !- Minute 3
  0.3,                                    !- Value Until Time 3
  17,                                     !- Hour 4
  0,                                      !- Minute 4
  0.9,                                    !- Value Until Time 4
  18,                                     !- Hour 5
  0,                                      !- Minute 5
  0.7,                                    !- Value Until Time 5
  20,                                     !- Hour 6
  0,                                      !- Minute 6
  0.5,                                    !- Value Until Time 6
  22,                                     !- Hour 7
  0,                                      !- Minute 7
  0.3,                                    !- Value Until Time 7
  23,                                     !- Hour 8
  0,                                      !- Minute 8
  0.1,                                    !- Value Until Time 8
  24,                                     !- Hour 9
  0,                                      !- Minute 9
  0.05;                                   !- Value Until Time 9

OS:Schedule:Day,
  {573774ec-75f3-48da-84d6-aace93da0967}, ! Handle
  Office Bldg Light Summer Design Day,    ! Name
  {053d3e3f-fc9f-414a-a658-9832b5fd0d46}, ! Schedule Type Limits Name
  ,                                       ! Interpolate to Timestep
  24,                                     ! Hour 1
  0,                                      ! Minute 1
  1;                                      ! Value Until Time 1

OS:Schedule:Day,
  {1d30e672-541f-4208-a16f-04bf57ce14e4}, ! Handle
  Office Bldg Light Winter Design Day,    ! Name
  {053d3e3f-fc9f-414a-a658-9832b5fd0d46}, ! Schedule Type Limits Name
  ,                                       ! Interpolate to Timestep
  24,                                     ! Hour 1
  0,                                      ! Minute 1
  0;                                      ! Value Until Time 1

OS:Schedule:Rule,
  {7e3e8fc8-42f3-4530-9a15-33a729f64309}, ! Handle
  Office Bldg Light Rule 1,               ! Name
  {898d3bab-b917-4e27-ab26-d881e648e497}, ! Schedule Ruleset Name
  0,                                      ! Rule Order
  {2ed25806-5a46-4e4f-a2f9-29ed4e3b88b7}, ! Day Schedule Name
  Yes,                                    ! Apply Sunday
  No,                                     ! Apply Monday
  No,                                     ! Apply Tuesday
  No,                                     ! Apply Wednesday
  No,                                     ! Apply Thursday
  No,                                     ! Apply Friday
  No,                                     ! Apply Saturday
  ,                                       ! Apply Holiday
  DateRange,                              ! Date Specification Type
  1,                                      ! Start Month
  1,                                      ! Start Day
  12,                                     ! End Month
  31;                                     ! End Day

OS:Schedule:Rule,
  {0f3ed565-b320-4ee9-8766-536da2812ac3}, ! Handle
  Office Bldg Light Rule 2,               ! Name
  {898d3bab-b917-4e27-ab26-d881e648e497}, ! Schedule Ruleset Name
  1,                                      ! Rule Order
  {d84f9abc-578f-484e-b9e9-b9237c3143e9}, ! Day Schedule Name
  No,                                     ! Apply Sunday
  No,                                     ! Apply Monday
  No,                                     ! Apply Tuesday
  No,                                     ! Apply Wednesday
  No,                                     ! Apply Thursday
  No,                                     ! Apply Friday
  Yes,                                    ! Apply Saturday
  ,                                       ! Apply Holiday
  DateRange,                              ! Date Specification Type
  1,                                      ! Start Month
  1,                                      ! Start Day
  12,                                     ! End Month
  31;                                     ! End Day

OS:Schedule:Day,
  {2ed25806-5a46-4e4f-a2f9-29ed4e3b88b7}, ! Handle
  Office Bldg Light Rule 1 Day Schedule,  ! Name
  {053d3e3f-fc9f-414a-a658-9832b5fd0d46}, ! Schedule Type Limits Name
  ,                                       ! Interpolate to Timestep
  24,                                     ! Hour 1
  0,                                      ! Minute 1
  0.050000000000000003;                   ! Value Until Time 1

OS:Schedule:Day,
  {d84f9abc-578f-484e-b9e9-b9237c3143e9}, ! Handle
  Office Bldg Light Rule 2 Day Schedule,  ! Name
  {053d3e3f-fc9f-414a-a658-9832b5fd0d46}, ! Schedule Type Limits Name
  ,                                       ! Interpolate to Timestep
  6,                                      ! Hour 1
  0,                                      ! Minute 1
  0.050000000000000003,                   ! Value Until Time 1
  8,                                      ! Hour 2
  0,                                      ! Minute 2
  0.10000000000000001,                    ! Value Until Time 2
  14,                                     ! Hour 3
  0,                                      ! Minute 3
  0.5,                                    ! Value Until Time 3
  17,                                     ! Hour 4
  0,                                      ! Minute 4
  0.14999999999999999,                    ! Value Until Time 4
  24,                                     ! Hour 5
  0,                                      ! Minute 5
  0.050000000000000003;                   ! Value Until Time 5

OS:Schedule:Ruleset,
  {64128e5d-d0a5-48c8-8138-213646e471ba}, ! Handle
  Office Bldg Equip,                      ! Name
  {053d3e3f-fc9f-414a-a658-9832b5fd0d46}, ! Schedule Type Limits Name
  {25abc8eb-00b3-4a1c-8d53-766048d5ae55}, ! Default Day Schedule Name
  {e910ebd8-d4dc-4881-9954-3a9de829f078}, ! Summer Design Day Schedule Name
  {d1dd2724-6679-4b57-97be-efc79508a9be}; ! Winter Design Day Schedule Name

OS:Schedule:Day,
  {25abc8eb-00b3-4a1c-8d53-766048d5ae55}, ! Handle
  Office Bldg Equip Default Schedule,     ! Name
  {053d3e3f-fc9f-414a-a658-9832b5fd0d46}, ! Schedule Type Limits Name
  ,                                       ! Interpolate to Timestep
  8,                                      !- Hour 1
  0,                                      !- Minute 1
  0.4,                                    !- Value Until Time 1
  12,                                     !- Hour 2
  0,                                      !- Minute 2
  0.9,                                    !- Value Until Time 2
  13,                                     !- Hour 3
  0,                                      !- Minute 3
  0.8,                                    !- Value Until Time 3
  17,                                     !- Hour 4
  0,                                      !- Minute 4
  0.9,                                    !- Value Until Time 4
  18,                                     !- Hour 5
  0,                                      !- Minute 5
  0.8,                                    !- Value Until Time 5
  20,                                     !- Hour 6
  0,                                      !- Minute 6
  0.6,                                    !- Value Until Time 6
  22,                                     !- Hour 7
  0,                                      !- Minute 7
  0.5,                                    !- Value Until Time 7
  24,                                     !- Hour 8
  0,                                      !- Minute 8
  0.4;                                    !- Value Until Time 8

OS:Schedule:Day,
  {e910ebd8-d4dc-4881-9954-3a9de829f078}, ! Handle
  Office Bldg Equip Summer Design Day,    ! Name
  {053d3e3f-fc9f-414a-a658-9832b5fd0d46}, ! Schedule Type Limits Name
  ,                                       ! Interpolate to Timestep
  24,                                     ! Hour 1
  0,                                      ! Minute 1
  1;                                      ! Value Until Time 1

OS:Schedule:Day,
  {d1dd2724-6679-4b57-97be-efc79508a9be}, ! Handle
  Office Bldg Equip Winter Design Day,    ! Name
  {053d3e3f-fc9f-414a-a658-9832b5fd0d46}, ! Schedule Type Limits Name
  ,                                       ! Interpolate to Timestep
  24,                                     ! Hour 1
  0,                                      ! Minute 1
  0;                                      ! Value Until Time 1

OS:Schedule:Rule,
  {cda247a5-6111-43f5-8600-dccd6a5ed214}, ! Handle
  Office Bldg Equip Rule 1,               ! Name
  {64128e5d-d0a5-48c8-8138-213646e471ba}, ! Schedule Ruleset Name
  0,                                      ! Rule Order
  {94228683-c249-4f43-b9db-5445570f3740}, ! Day Schedule Name
  Yes,                                    ! Apply Sunday
  No,                                     ! Apply Monday
  No,                                     ! Apply Tuesday
  No,                                     ! Apply Wednesday
  No,                                     ! Apply Thursday
  No,                                     ! Apply Friday
  No,                                     ! Apply Saturday
  ,                                       ! Apply Holiday
  DateRange,                              ! Date Specification Type
  1,                                      ! Start Month
  1,                                      ! Start Day
  12,                                     ! End Month
  31;                                     ! End Day

OS:Schedule:Rule,
  {f1a1ab06-711e-4fc8-a3fc-8ff195fa68aa}, ! Handle
  Office Bldg Equip Rule 2,               ! Name
  {64128e5d-d0a5-48c8-8138-213646e471ba}, ! Schedule Ruleset Name
  1,                                      ! Rule Order
  {34fdc952-bfe7-41a6-bbef-a7144e7470ab}, ! Day Schedule Name
  No,                                     ! Apply Sunday
  No,                                     ! Apply Monday
  No,                                     ! Apply Tuesday
  No,                                     ! Apply Wednesday
  No,                                     ! Apply Thursday
  No,                                     ! Apply Friday
  Yes,                                    ! Apply Saturday
  ,                                       ! Apply Holiday
  DateRange,                              ! Date Specification Type
  1,                                      ! Start Month
  1,                                      ! Start Day
  12,                                     ! End Month
  31;                                     ! End Day

OS:Schedule:Day,
  {94228683-c249-4f43-b9db-5445570f3740}, ! Handle
  Office Bldg Equip Rule 1 Day Schedule,  ! Name
  {053d3e3f-fc9f-414a-a658-9832b5fd0d46}, ! Schedule Type Limits Name
  ,                                       ! Interpolate to Timestep
  24,                                     ! Hour 1
  0,                                      ! Minute 1
  0.29999999999999999;                    ! Value Until Time 1

OS:Schedule:Day,
  {34fdc952-bfe7-41a6-bbef-a7144e7470ab}, ! Handle
  Office Bldg Equip Rule 2 Day Schedule,  ! Name
  {053d3e3f-fc9f-414a-a658-9832b5fd0d46}, ! Schedule Type Limits Name
  ,                                       ! Interpolate to Timestep
  6,                                      ! Hour 1
  0,                                      ! Minute 1
  0.29999999999999999,                    ! Value Until Time 1
  8,                                      ! Hour 2
  0,                                      ! Minute 2
  0.40000000000000002,                    ! Value Until Time 2
  14,                                     ! Hour 3
  0,                                      ! Minute 3
  0.5,                                    ! Value Until Time 3
  17,                                     ! Hour 4
  0,                                      ! Minute 4
  0.34999999999999998,                    ! Value Until Time 4
  24,                                     ! Hour 5
  0,                                      ! Minute 5
  0.29999999999999999;                    ! Value Until Time 5

OS:Schedule:Ruleset,
  {79105897-8bcd-40ff-bb07-b512fee78f65}, ! Handle
  Office Infil Quarter On,                ! Name
  {053d3e3f-fc9f-414a-a658-9832b5fd0d46}, ! Schedule Type Limits Name
  {3ffa9b7f-f276-4023-afe1-91f2fd98943d}, ! Default Day Schedule Name
  {766e4129-a436-493e-a1b0-b062b9bbfa2b}, ! Summer Design Day Schedule Name
  {4a826d75-8ba4-4aa1-a400-ee2bf11a998a}; ! Winter Design Day Schedule Name

OS:Schedule:Day,
  {3ffa9b7f-f276-4023-afe1-91f2fd98943d}, ! Handle
  Office Infil Quarter On Default Schedule, ! Name
  {053d3e3f-fc9f-414a-a658-9832b5fd0d46}, ! Schedule Type Limits Name
  ,                                       ! Interpolate to Timestep
  6,                                      !- Hour 1
  0,                                      !- Minute 1
  1,                                      !- Value Until Time 1
  22,                                     !- Hour 2
  0,                                      !- Minute 2
  0.25,                                   !- Value Until Time 2
  24,                                     !- Hour 3
  0,                                      !- Minute 3
  1;                                      !- Value Until Time 3

OS:Schedule:Day,
  {766e4129-a436-493e-a1b0-b062b9bbfa2b}, ! Handle
  Office Infil Quarter On Summer Design Day, ! Name
  {053d3e3f-fc9f-414a-a658-9832b5fd0d46}, ! Schedule Type Limits Name
  ,                                       ! Interpolate to Timestep
  6,                                      ! Hour 1
  0,                                      ! Minute 1
  1,                                      ! Value Until Time 1
  22,                                     ! Hour 2
  0,                                      ! Minute 2
  0.25,                                   ! Value Until Time 2
  24,                                     ! Hour 3
  0,                                      ! Minute 3
  1;                                      ! Value Until Time 3

OS:Schedule:Day,
  {4a826d75-8ba4-4aa1-a400-ee2bf11a998a}, ! Handle
  Office Infil Quarter On Winter Design Day, ! Name
  {053d3e3f-fc9f-414a-a658-9832b5fd0d46}, ! Schedule Type Limits Name
  ,                                       ! Interpolate to Timestep
  6,                                      ! Hour 1
  0,                                      ! Minute 1
  1,                                      ! Value Until Time 1
  18,                                     ! Hour 2
  0,                                      ! Minute 2
  0.25,                                   ! Value Until Time 2
  24,                                     ! Hour 3
  0,                                      ! Minute 3
  1;                                      ! Value Until Time 3

OS:Schedule:Rule,
  {87544e34-7d4b-4a6e-8986-3bcece6ab621}, ! Handle
  Office Infil Quarter On Rule 1,         ! Name
  {79105897-8bcd-40ff-bb07-b512fee78f65}, ! Schedule Ruleset Name
  0,                                      ! Rule Order
  {135ebafa-256f-4207-959c-0e75c706c733}, ! Day Schedule Name
  Yes,                                    ! Apply Sunday
  No,                                     ! Apply Monday
  No,                                     ! Apply Tuesday
  No,                                     ! Apply Wednesday
  No,                                     ! Apply Thursday
  No,                                     ! Apply Friday
  No,                                     ! Apply Saturday
  ,                                       ! Apply Holiday
  DateRange,                              ! Date Specification Type
  1,                                      ! Start Month
  1,                                      ! Start Day
  12,                                     ! End Month
  31;                                     ! End Day

OS:Schedule:Rule,
  {64495b2b-9bc2-4841-86c0-51fa431fdbb5}, ! Handle
  Office Infil Quarter On Rule 2,         ! Name
  {79105897-8bcd-40ff-bb07-b512fee78f65}, ! Schedule Ruleset Name
  1,                                      ! Rule Order
  {aa6cfbc9-ed11-4e5d-b367-fd2e0a2ef9cd}, ! Day Schedule Name
  No,                                     ! Apply Sunday
  No,                                     ! Apply Monday
  No,                                     ! Apply Tuesday
  No,                                     ! Apply Wednesday
  No,                                     ! Apply Thursday
  No,                                     ! Apply Friday
  Yes,                                    ! Apply Saturday
  ,                                       ! Apply Holiday
  DateRange,                              ! Date Specification Type
  1,                                      ! Start Month
  1,                                      ! Start Day
  12,                                     ! End Month
  31;                                     ! End Day

OS:Schedule:Day,
  {135ebafa-256f-4207-959c-0e75c706c733}, ! Handle
  Office Infil Quarter On Rule 1 Day Schedule, ! Name
  {053d3e3f-fc9f-414a-a658-9832b5fd0d46}, ! Schedule Type Limits Name
  ,                                       ! Interpolate to Timestep
  24,                                     ! Hour 1
  0,                                      ! Minute 1
  1;                                      ! Value Until Time 1

OS:Schedule:Day,
  {aa6cfbc9-ed11-4e5d-b367-fd2e0a2ef9cd}, ! Handle
  Office Infil Quarter On Rule 2 Day Schedule, ! Name
  {053d3e3f-fc9f-414a-a658-9832b5fd0d46}, ! Schedule Type Limits Name
  ,                                       ! Interpolate to Timestep
  6,                                      ! Hour 1
  0,                                      ! Minute 1
  1,                                      ! Value Until Time 1
  18,                                     ! Hour 2
  0,                                      ! Minute 2
  0.25,                                   ! Value Until Time 2
  24,                                     ! Hour 3
  0,                                      ! Minute 3
  1;                                      ! Value Until Time 3

OS:ScheduleTypeLimits,
  {053d3e3f-fc9f-414a-a658-9832b5fd0d46}, ! Handle
  Fraction,                               ! Name