
OS:Version,
  {c97067c3-8614-4d16-bd96-fb7877e4d9ba}, !- Handle
  1.10.0;                                 !- Version Identifier

OS:Facility,
  {22047443-558b-44dd-bd90-392fc1dc2ddf}; !- Handle

OS:Building,
  {e64a8652-9dcb-4b55-aeb1-1ddf76f507ea}, !- Handle
  Building 1,                             !- Name
  ,                                       !- Building Sector Type
  ,                                       !- North Axis {deg}
  ,                                       !- Nominal Floor to Floor Height {m}
  ,                                       !- Space Type Name
  ,                                       !- Default Construction Set Name
  ;                                       !- Default Schedule Set Name

OS:BuildingStory,
  {f9971322-ba74-4c90-a915-5839bfde8667}, !- Handle
  Basement Level,                         !- Name
  -2.439,                                 !- Nominal Z Coordinate {m}
  ,                                       !- Nominal Floor to Floor Height {m}
  ,                                       !- Default Construction Set Name
  ,                                       !- Default Schedule Set Name
  ;                                       !- Group Rendering Name

OS:BuildingStory,
  {504a2468-08ff-4238-887e-8d8b2f7b81da}, !- Handle
  Level 1,                                !- Name
  0,                                      !- Nominal Z Coordinate {m}
  ,                                       !- Nominal Floor to Floor Height {m}
  ,                                       !- Default Construction Set Name
  ,                                       !- Default Schedule Set Name
  ;                                       !- Group Rendering Name

OS:BuildingStory,
  {7f32bac6-3e38-4ccc-bfe5-c3b0d66ec145}, !- Handle
  Level 1 Plenum,                         !- Name
  2.744,                                  !- Nominal Z Coordinate {m}
  ,                                       !- Nominal Floor to Floor Height {m}
  ,                                       !- Default Construction Set Name
  ,                                       !- Default Schedule Set Name
  ;                                       !- Group Rendering Name

OS:BuildingStory,
  {386c65cb-ad89-4958-82ce-47cb34b2f1f6}, !- Handle
  Level 2,                                !- Name
  3.9632,                                 !- Nominal Z Coordinate {m}
  ,                                       !- Nominal Floor to Floor Height {m}
  ,                                       !- Default Construction Set Name
  ,                                       !- Default Schedule Set Name
  ;                                       !- Group Rendering Name

OS:BuildingStory,
  {a5b5308a-207f-4ceb-98b5-55908550f793}, !- Handle
  Level 4,                                !- Name
  16.7683,                                !- Nominal Z Coordinate {m}
  ,                                       !- Nominal Floor to Floor Height {m}
  ,                                       !- Default Construction Set Name
  ,                                       !- Default Schedule Set Name
  ;                                       !- Group Rendering Name

OS:BuildingStory,
  {2aa61d9d-8212-4895-b1a1-784196cc8cd5}, !- Handle
  Level 4 Plenum,                         !- Name
  19.5123,                                !- Nominal Z Coordinate {m}
  ,                                       !- Nominal Floor to Floor Height {m}
  ,                                       !- Default Construction Set Name
  ,                                       !- Default Schedule Set Name
  ;                                       !- Group Rendering Name

OS:BuildingStory,
  {857b2870-bd05-413a-b0d1-eaac6c1883e3}, !- Handle
  Level 5,                                !- Name
  20.7315,                                !- Nominal Z Coordinate {m}
  ,                                       !- Nominal Floor to Floor Height {m}
  ,                                       !- Default Construction Set Name
  ,                                       !- Default Schedule Set Name
  ;                                       !- Group Rendering Name

OS:BuildingStory,
  {b5b17ebd-a093-4369-bb0c-3c8c0ad45152}, !- Handle
  Level 8,                                !- Name
  33.5366,                                !- Nominal Z Coordinate {m}
  ,                                       !- Nominal Floor to Floor Height {m}
  ,                                       !- Default Construction Set Name
  ,                                       !- Default Schedule Set Name
  ;                                       !- Group Rendering Name

OS:BuildingStory,
  {550de74d-b2e1-4eb7-adbb-fd08f45096b0}, !- Handle
  Level 8 Plenum,                         !- Name
  36.28,                                  !- Nominal Z Coordinate {m}
  ,                                       !- Nominal Floor to Floor Height {m}
  ,                                       !- Default Construction Set Name
  ,                                       !- Default Schedule Set Name
  ;                                       !- Group Rendering Name

OS:BuildingStory,
  {1f7eadd2-cb78-4091-96a0-dc97d4b67e67}, !- Handle
  Roof Level,                             !- Name
  37.4998,                                !- Nominal Z Coordinate {m}
  ,                                       !- Nominal Floor to Floor Height {m}
  ,                                       !- Default Construction Set Name
  ,                                       !- Default Schedule Set Name
  ;                                       !- Group Rendering Name

OS:Space,
  {4a9423ed-67da-4df2-93ee-c308f9a7b024}, !- Handle
  Space_zone_0,                           !- Name
  ,                                       !- Space Type Name
  ,                                       !- Default Construction Set Name
  ,                                       !- Default Schedule Set Name
  ,                                       !- Direction of Relative North {deg}
  ,                                       !- X Origin {m}
  ,                                       !- Y Origin {m}
  ,                                       !- Z Origin {m}
  {f9971322-ba74-4c90-a915-5839bfde8667}, !- Building Story Name
  {1dcbbab7-d33b-4e83-8f3c-37f2104082c9}; !- Thermal Zone Name

OS:Surface,
  {f249d881-3f84-4374-bdc2-b54576327528}, !- Handle
  Surface 1,                              !- Name
  Floor,                                  !- Surface Type
  ,                                       !- Construction Name
  {4a9423ed-67da-4df2-93ee-c308f9a7b024}, !- Space Name
  Ground,                                 !- Outside Boundary Condition
  ,                                       !- Outside Boundary Condition Object
  NoSun,                                  !- Sun Exposure
  NoWind,                                 !- Wind Exposure
  ,                                       !- View Factor to Ground
  ,                                       !- Number of Vertices
  0, 0, -2.439,                           !- X,Y,Z Vertex 1 {m}
  0, 48.7381, -2.439,                     !- X,Y,Z Vertex 2 {m}
  16.0782, 48.7381, -2.439,               !- X,Y,Z Vertex 3 {m}
  16.0782, 0, -2.439;                     !- X,Y,Z Vertex 4 {m}

OS:Surface,
  {7edd78ea-856d-4da2-9693-09912ae6734a}, !- Handle
  Surface 2,                              !- Name
  RoofCeiling,                            !- Surface Type
  ,                                       !- Construction Name
  {4a9423ed-67da-4df2-93ee-c308f9a7b024}, !- Space Name
  Surface,                                !- Outside Boundary Condition
  {8f4a4a7a-cc05-4567-a1d8-5e0e1627371b}, !- Outside Boundary Condition Object
  NoSun,                                  !- Sun Exposure
  NoWind,                                 !- Wind Exposure
  ,                                       !- View Factor to Ground
  ,                                       !- Number of Vertices
  0, 0, 0,                                !- X,Y,Z Vertex 1 {m}
  16.0782, 0, 0,                          !- X,Y,Z Vertex 2 {m}
  16.0782, 48.7381, 0,                    !- X,Y,Z Vertex 3 {m}
  0, 48.7381, 0;                          !- X,Y,Z Vertex 4 {m}

OS:Surface,
  {9615832b-d08d-4a42-bc6f-7cc70174722f}, !- Handle
  Surface 3,                              !- Name
  Wall,                                   !- Surface Type
  ,                                       !- Construction Name
  {4a9423ed-67da-4df2-93ee-c308f9a7b024}, !- Space Name
  Outdoors,                               !- Outside Boundary Condition
  ,                                       !- Outside Boundary Condition Object
  SunExposed,                             !- Sun Exposure
  WindExposed,                            !- Wind Exposure
  ,                                       !- View Factor to Ground
  ,                                       !- Number of Vertices
  0, 0, 0,                                !- X,Y,Z Vertex 1 {m}
  0, 48.7381, 0,                          !- X,Y,Z Vertex 2 {m}
  0, 48.7381, -2.439,                     !- X,Y,Z Vertex 3 {m}
  0, 0, -2.439;                           !- X,Y,Z Vertex 4 {m}

OS:Surface,
  {c9ca4576-41d0-4bbb-ba30-61376e51099b}, !- Handle
  Surface 4,                              !- Name
  Wall,                                   !- Surface Type
  ,                                       !- Construction Name
  {4a9423ed-67da-4df2-93ee-c308f9a7b024}, !- Space Name
  Outdoors,                               !- Outside Boundary Condition
  ,                                       !- Outside Boundary Condition Object
  SunExposed,                             !- Sun Exposure
  WindExposed,                            !- Wind Exposure
  ,                                       !- View Factor to Ground
  ,                                       !- Number of Vertices
  0, 0, -2.439,                           !- X,Y,Z Vertex 1 {m}
  16.0782, 0, -2.439,                     !- X,Y,Z Vertex 2 {m}
  16.0782, 0, 0,                          !- X,Y,Z Vertex 3 {m}
  0, 0, 0;                                !- X,Y,Z Vertex 4 {m}

OS:Surface,
  {a56e1e4a-9a12-415f-8439-219d6f66aa37}, !- Handle
  Surface 5,                              !- Name
  Wall,                                   !- Surface Type
  ,                                       !- Construction Name
  {4a9423ed-67da-4df2-93ee-c308f9a7b024}, !- Space Name
  Surface,                                !- Outside Boundary Condition
  {e6dfd37f-5d08-449b-8af7-43e80554ef81}, !- Outside Boundary Condition Object
  NoSun,                                  !- Sun Exposure
  NoWind,                                 !- Wind Exposure
  ,                                       !- View Factor to Ground
  ,                                       !- Number of Vertices
  16.0782, 0, -2.439,                     !- X,Y,Z Vertex 1 {m}
  16.0782, 48.7381, -2.439,               !- X,Y,Z Vertex 2 {m}
  16.0782, 48.7381, 0,                    !- X,Y,Z Vertex 3 {m}
  16.0782, 0, 0;                          !- X,Y,Z Vertex 4 {m}

OS:Surface,
  {cf01947f-7544-4300-bf39-433e34564c70}, !- Handle
  Surface 6,                              !- Name
  Wall,                                   !- Surface Type
  ,                                       !- Construction Name
  {4a9423ed-67da-4df2-93ee-c308f9a7b024}, !- Space Name
  Outdoors,                               !- Outside Boundary Condition
  ,                                       !- Outside Boundary Condition Object
  SunExposed,                             !- Sun Exposure
  WindExposed,                            !- Wind Exposure
  ,                                       !- View Factor to Ground
  ,                                       !- Number of Vertices
  16.0782, 48.7381, -2.439,               !- X,Y,Z Vertex 1 {m}
  0, 48.7381, -2.439,                     !- X,Y,Z Vertex 2 {m}
  0, 48.7381, 0,                          !- X,Y,Z Vertex 3 {m}
  16.0782, 48.7381, 0;                    !- X,Y,Z Vertex 4 {m}

OS:Space,
  {2eb7dc3b-da39-4785-93d1-c14c082376a5}, !- Handle
  Space_zone_1,                           !- Name
  ,                                       !- Space Type Name
  ,                                       !- Default Construction Set Name
  ,                                       !- Default Schedule Set Name
  ,                                       !- Direction of Relative North {deg}
  ,                                       !- X Origin {m}
  ,                                       !- Y Origin {m}
  ,                                       !- Z Origin {m}
  {f9971322-ba74-4c90-a915-5839bfde8667}, !- Building Story Name
  {4a1d121e-2823-438e-b898-9807c5bd09cc}; !- Thermal Zone Name

OS:Surface,
  {6b5641cf-5320-4281-8bbf-0558a00f82a2}, !- Handle
  Surface 7,                              !- Name
  Floor,                                  !- Surface Type
  ,                                       !- Construction Name
  {2eb7dc3b-da39-4785-93d1-c14c082376a5}, !- Space Name
  Ground,                                 !- Outside Boundary Condition
  ,                                       !- Outside Boundary Condition Object
  NoSun,                                  !- Sun Exposure
  NoWind,                                 !- Wind Exposure
  ,                                       !- View Factor to Ground
  ,                                       !- Number of Vertices
  16.0782, 0, -2.439,                     !- X,Y,Z Vertex 1 {m}
  16.0782, 48.7381, -2.439,               !- X,Y,Z Vertex 2 {m}
  73.1072, 48.7381, -2.439,               !- X,Y,Z Vertex 3 {m}
  73.1072, 0, -2.439;                     !- X,Y,Z Vertex 4 {m}

OS:Surface,
  {694de3b7-840c-4b99-81d4-c61a79780455}, !- Handle
  Surface 8,                              !- Name
  RoofCeiling,                            !- Surface Type
  ,                                       !- Construction Name
  {2eb7dc3b-da39-4785-93d1-c14c082376a5}, !- Space Name
  Surface,                                !- Outside Boundary Condition
  {86010f02-1825-4410-98b6-35aa60bf4b23}, !- Outside Boundary Condition Object
  NoSun,                                  !- Sun Exposure
  NoWind,                                 !- Wind Exposure
  ,                                       !- View Factor to Ground
  ,                                       !- Number of Vertices
  16.0782, 0, 0,                          !- X,Y,Z Vertex 1 {m}
  73.1072, 0, 0,                          !- X,Y,Z Vertex 2 {m}
  73.1072, 48.7381, 0,                    !- X,Y,Z Vertex 3 {m}
  16.0782, 48.7381, 0;                    !- X,Y,Z Vertex 4 {m}

OS:Surface,
  {e6dfd37f-5d08-449b-8af7-43e80554ef81}, !- Handle
  Surface 9,                              !- Name
  Wall,                                   !- Surface Type
  ,                                       !- Construction Name
  {2eb7dc3b-da39-4785-93d1-c14c082376a5}, !- Space Name
  Surface,                                !- Outside Boundary Condition
  {a56e1e4a-9a12-415f-8439-219d6f66aa37}, !- Outside Boundary Condition Object
  NoSun,                                  !- Sun Exposure
  NoWind,                                 !- Wind Exposure
  ,                                       !- View Factor to Ground
  ,                                       !- Number of Vertices
  16.0782, 0, 0,                          !- X,Y,Z Vertex 1 {m}
  16.0782, 48.7381, 0,                    !- X,Y,Z Vertex 2 {m}
  16.0782, 48.7381, -2.439,               !- X,Y,Z Vertex 3 {m}
  16.0782, 0, -2.439;                     !- X,Y,Z Vertex 4 {m}

OS:Surface,
  {f95818d4-6474-4422-8ad7-7d1c8b2dab8b}, !- Handle
  Surface 10,                             !- Name
  Wall,                                   !- Surface Type
  ,                                       !- Construction Name
  {2eb7dc3b-da39-4785-93d1-c14c082376a5}, !- Space Name
  Outdoors,                               !- Outside Boundary Condition
  ,                                       !- Outside Boundary Condition Object
  SunExposed,                             !- Sun Exposure
  WindExposed,                            !- Wind Exposure
  ,                                       !- View Factor to Ground
  ,                                       !- Number of Vertices
  16.0782, 0, -2.439,                     !- X,Y,Z Vertex 1 {m}
  73.1072, 0, -2.439,                     !- X,Y,Z Vertex 2 {m}
  73.1072, 0, 0,                          !- X,Y,Z Vertex 3 {m}
  16.0782, 0, 0;                          !- X,Y,Z Vertex 4 {m}

OS:Surface,
  {0ef48a53-adb3-4bcd-ac49-b09763325700}, !- Handle
  Surface 11,                             !- Name
  Wall,                                   !- Surface Type
  ,                                       !- Construction Name
  {2eb7dc3b-da39-4785-93d1-c14c082376a5}, !- Space Name
  Outdoors,                               !- Outside Boundary Condition
  ,                                       !- Outside Boundary Condition Object
  SunExposed,                             !- Sun Exposure
  WindExposed,                            !- Wind Exposure
  ,                                       !- View Factor to Ground
  ,                                       !- Number of Vertices
  73.1072, 0, -2.439,                     !- X,Y,Z Vertex 1 {m}
  73.1072, 48.7381, -2.439,               !- X,Y,Z Vertex 2 {m}
  73.1072, 48.7381, 0,                    !- X,Y,Z Vertex 3 {m}
  73.1072, 0, 0;                          !- X,Y,Z Vertex 4 {m}

OS:Surface,
  {486bf1ab-8e25-4301-9f6b-1dc5a003cc28}, !- Handle
  Surface 12,                             !- Name
  Wall,                                   !- Surface Type
  ,                                       !- Construction Name
  {2eb7dc3b-da39-4785-93d1-c14c082376a5}, !- Space Name
  Outdoors,                               !- Outside Boundary Condition
  ,                                       !- Outside Boundary Condition Object
  SunExposed,                             !- Sun Exposure
  WindExposed,                            !- Wind Exposure
  ,                                       !- View Factor to Ground
  ,                                       !- Number of Vertices
  73.1072, 48.7381, -2.439,               !- X,Y,Z Vertex 1 {m}
  16.0782, 48.7381, -2.439,               !- X,Y,Z Vertex 2 {m}
  16.0782, 48.7381, 0,                    !- X,Y,Z Vertex 3 {m}
  73.1072, 48.7381, 0;                    !- X,Y,Z Vertex 4 {m}

OS:Space,
  {756d875e-675d-4f9b-870a-dd8781a0f229}, !- Handle
  ZoneH,                                  !- Name
  ,                                       !- Space Type Name
  ,                                       !- Default Construction Set Name
  ,                                       !- Default Schedule Set Name
  ,                                       !- Direction of Relative North {deg}
  ,                                       !- X Origin {m}
  ,                                       !- Y Origin {m}
  ,                                       !- Z Origin {m}
  {504a2468-08ff-4238-887e-8d8b2f7b81da}, !- Building Story Name
  {2b726fb9-07eb-4ba9-b0be-008a1fff42b9}; !- Thermal Zone Name

OS:Surface,
  {8f4a4a7a-cc05-4567-a1d8-5e0e1627371b}, !- Handle
  Surface 13,                             !- Name
  Floor,                                  !- Surface Type
  ,                                       !- Construction Name
  {756d875e-675d-4f9b-870a-dd8781a0f229}, !- Space Name
  Surface,                                !- Outside Boundary Condition
  {7edd78ea-856d-4da2-9693-09912ae6734a}, !- Outside Boundary Condition Object
  NoSun,                                  !- Sun Exposure
  NoWind,                                 !- Wind Exposure
  ,                                       !- View Factor to Ground
  ,                                       !- Number of Vertices
  0, 0, 0,                                !- X,Y,Z Vertex 1 {m}
  0, 48.7381, 0,                          !- X,Y,Z Vertex 2 {m}
  16.0782, 48.7381, 0,                    !- X,Y,Z Vertex 3 {m}
  16.0782, 0, 0;                          !- X,Y,Z Vertex 4 {m}

OS:Surface,
  {6f312a84-8efd-4866-9270-36d81159635d}, !- Handle
  Surface 14,                             !- Name
  RoofCeiling,                            !- Surface Type
  ,                                       !- Construction Name
  {756d875e-675d-4f9b-870a-dd8781a0f229}, !- Space Name
  Outdoors,                               !- Outside Boundary Condition
  ,                                       !- Outside Boundary Condition Object
  SunExposed,                             !- Sun Exposure
  WindExposed,                            !- Wind Exposure
  ,                                       !- View Factor to Ground
  ,                                       !- Number of Vertices
  0, 0, 10,                               !- X,Y,Z Vertex 1 {m}
  16.0782, 0, 10,                         !- X,Y,Z Vertex 2 {m}
  16.0782, 48.7381, 10,                   !- X,Y,Z Vertex 3 {m}
  0, 48.7381, 10;                         !- X,Y,Z Vertex 4 {m}

OS:Surface,
  {f0b4eca2-a020-452d-a522-4daef8c25069}, !- Handle
  Surface 15,                             !- Name
  Wall,                                   !- Surface Type
  ,                                       !- Construction Name
  {756d875e-675d-4f9b-870a-dd8781a0f229}, !- Space Name
  Outdoors,                               !- Outside Boundary Condition
  ,                                       !- Outside Boundary Condition Object
  SunExposed,                             !- Sun Exposure
  WindExposed,                            !- Wind Exposure
  ,                                       !- View Factor to Ground
  ,                                       !- Number of Vertices
  0, 0, 10,                               !- X,Y,Z Vertex 1 {m}
  0, 48.7381, 10,                         !- X,Y,Z Vertex 2 {m}
  0, 48.7381, 0,                          !- X,Y,Z Vertex 3 {m}
  0, 0, 0;                                !- X,Y,Z Vertex 4 {m}

OS:Surface,
  {91652c7e-2be7-43f8-b283-4a7927685587}, !- Handle
  Surface 16,                             !- Name
  Wall,                                   !- Surface Type
  ,                                       !- Construction Name
  {756d875e-675d-4f9b-870a-dd8781a0f229}, !- Space Name
  Outdoors,                               !- Outside Boundary Condition
  ,                                       !- Outside Boundary Condition Object
  SunExposed,                             !- Sun Exposure
  WindExposed,                            !- Wind Exposure
  ,                                       !- View Factor to Ground
  ,                                       !- Number of Vertices
  0, 0, 0,                                !- X,Y,Z Vertex 1 {m}
  16.0782, 0, 0,                          !- X,Y,Z Vertex 2 {m}
  16.0782, 0, 10,                         !- X,Y,Z Vertex 3 {m}
  0, 0, 10;                               !- X,Y,Z Vertex 4 {m}

OS:Surface,
  {a804425b-ad51-4249-87ba-5108d3402969}, !- Handle
  Surface 17,                             !- Name
  Wall,                                   !- Surface Type
  ,                                       !- Construction Name
  {756d875e-675d-4f9b-870a-dd8781a0f229}, !- Space Name
  Surface,                                !- Outside Boundary Condition
  {0c61defb-4d81-4580-9868-a25fda51239a}, !- Outside Boundary Condition Object
  NoSun,                                  !- Sun Exposure
  NoWind,                                 !- Wind Exposure
  ,                                       !- View Factor to Ground
  ,                                       !- Number of Vertices
  16.0782, 0, 0,                          !- X,Y,Z Vertex 1 {m}
  16.0782, 48.7381, 0,                    !- X,Y,Z Vertex 2 {m}
  16.0782, 48.7381, 10,                   !- X,Y,Z Vertex 3 {m}
  16.0782, 0, 10;                         !- X,Y,Z Vertex 4 {m}

OS:Surface,
  {40c66f16-f7e6-45e4-a449-5006bb325e28}, !- Handle
  Surface 18,                             !- Name
  Wall,                                   !- Surface Type
  ,                                       !- Construction Name
  {756d875e-675d-4f9b-870a-dd8781a0f229}, !- Space Name
  Outdoors,                               !- Outside Boundary Condition
  ,                                       !- Outside Boundary Condition Object
  SunExposed,                             !- Sun Exposure
  WindExposed,                            !- Wind Exposure
  ,                                       !- View Factor to Ground
  ,                                       !- Number of Vertices
  16.0782, 48.7381, 0,                    !- X,Y,Z Vertex 1 {m}
  0, 48.7381, 0,                          !- X,Y,Z Vertex 2 {m}
  0, 48.7381, 10,                         !- X,Y,Z Vertex 3 {m}
  16.0782, 48.7381, 10;                   !- X,Y,Z Vertex 4 {m}

OS:Space,
  {504bf3d9-370f-4266-b86a-5e467de672a1}, !- Handle
  ZoneC,                                  !- Name
  ,                                       !- Space Type Name
  ,                                       !- Default Construction Set Name
  ,                                       !- Default Schedule Set Name
  ,                                       !- Direction of Relative North {deg}
  ,                                       !- X Origin {m}
  ,                                       !- Y Origin {m}
  ,                                       !- Z Origin {m}
  {504a2468-08ff-4238-887e-8d8b2f7b81da}, !- Building Story Name
  {f88595c7-0e18-4833-816b-53f4d3c9bf7c}; !- Thermal Zone Name

OS:Surface,
  {0b1c6e2f-2bc7-4c1e-84dc-1bb3b0f9c67f}, !- Handle
  Surface 19,                             !- Name
  Wall,                                   !- Surface Type
  ,                                       !- Construction Name
  {504bf3d9-370f-4266-b86a-5e467de672a1}, !- Space Name
  Outdoors,                               !- Outside Boundary Condition
  ,                                       !- Outside Boundary Condition Object
  SunExposed,                             !- Sun Exposure
  WindExposed,                            !- Wind Exposure
  ,                                       !- View Factor to Ground
  ,                                       !- Number of Vertices
  16.0782, 0, 0,                          !- X,Y,Z Vertex 1 {m}
  73.1072, 0, 0,                          !- X,Y,Z Vertex 2 {m}
  73.1072, 0, 10,                         !- X,Y,Z Vertex 3 {m}
  16.0782, 0, 10;                         !- X,Y,Z Vertex 4 {m}

OS:Surface,
  {62243247-678e-4a80-8a56-0019250777d7}, !- Handle
  Surface 20,                             !- Name
  Wall,                                   !- Surface Type
  ,                                       !- Construction Name
  {504bf3d9-370f-4266-b86a-5e467de672a1}, !- Space Name
  Outdoors,                               !- Outside Boundary Condition
  ,                                       !- Outside Boundary Condition Object
  SunExposed,                             !- Sun Exposure
  WindExposed,                            !- Wind Exposure
  ,                                       !- View Factor to Ground
  ,                                       !- Number of Vertices
  73.1072, 0, 0,                          !- X,Y,Z Vertex 1 {m}
  73.1072, 48.7381, 0,                    !- X,Y,Z Vertex 2 {m}
  73.1072, 48.7381, 10,                   !- X,Y,Z Vertex 3 {m}
  73.1072, 0, 10;                         !- X,Y,Z Vertex 4 {m}

OS:Surface,
  {9f562459-b7ee-4340-97f1-78f11f38aa6e}, !- Handle
  Surface 21,                             !- Name
  Wall,                                   !- Surface Type
  ,                                       !- Construction Name
  {504bf3d9-370f-4266-b86a-5e467de672a1}, !- Space Name
  Outdoors,                               !- Outside Boundary Condition
  ,                                       !- Outside Boundary Condition Object
  SunExposed,                             !- Sun Exposure
  WindExposed,                            !- Wind Exposure
  ,                                       !- View Factor to Ground
  ,                                       !- Number of Vertices
  73.1072, 48.7381, 0,                    !- X,Y,Z Vertex 1 {m}
  16.0782, 48.7381, 0,                    !- X,Y,Z Vertex 2 {m}
  16.0782, 48.7381, 10,                   !- X,Y,Z Vertex 3 {m}
  73.1072, 48.7381, 10;                   !- X,Y,Z Vertex 4 {m}

OS:Surface,
  {86010f02-1825-4410-98b6-35aa60bf4b23}, !- Handle
  Surface 22,                             !- Name
  Floor,                                  !- Surface Type
  ,                                       !- Construction Name
  {504bf3d9-370f-4266-b86a-5e467de672a1}, !- Space Name
  Surface,                                !- Outside Boundary Condition
  {694de3b7-840c-4b99-81d4-c61a79780455}, !- Outside Boundary Condition Object
  NoSun,                                  !- Sun Exposure
  NoWind,                                 !- Wind Exposure
  ,                                       !- View Factor to Ground
  ,                                       !- Number of Vertices
  16.0782, 0, 0,                          !- X,Y,Z Vertex 1 {m}
  16.0782, 48.7381, 0,                    !- X,Y,Z Vertex 2 {m}
  73.1072, 48.7381, 0,                    !- X,Y,Z Vertex 3 {m}
  73.1072, 0, 0;                          !- X,Y,Z Vertex 4 {m}

OS:Surface,
  {1035ed9f-d0a7-4e7d-8338-96acbb21e514}, !- Handle
  Surface 23,                             !- Name
  RoofCeiling,                            !- Surface Type
  ,                                       !- Construction Name
  {504bf3d9-370f-4266-b86a-5e467de672a1}, !- Space Name
  Outdoors,                               !- Outside Boundary Condition
  ,                                       !- Outside Boundary Condition Object
  SunExposed,                             !- Sun Exposure
  WindExposed,                            !- Wind Exposure
  ,                                       !- View Factor to Ground
  ,                                       !- Number of Vertices
  16.0782, 0, 10,                         !- X,Y,Z Vertex 1 {m}