
OS:Version,
  {643a4972-cbca-4f7b-9098-155634d1d92a}, !- Handle
  1.10.0;                                 !- Version Identifier

OS:Facility,
  {4bab36ad-4d26-4865-9ed2-4b093ebbd437}; !- Handle

OS:Building,
  {6e4bd319-5432-4634-a5bc-34cfa33a5759}, !- Handle
  Building 1,                             !- Name
  ,                                       !- Building Sector Type
  ,                                       !- North Axis {deg}
  ,                                       !- Nominal Floor to Floor Height {m}
  ,                                       !- Space Type Name
  ,                                       !- Default Construction Set Name
  ;                                       !- Default Schedule Set Name

OS:BuildingStory,
  {89e46e25-4430-44f4-b347-5b9f7e374582}, !- Handle
  Level 1,                                !- Name
  ,                                       !- Nominal Z Coordinate {m}
  ,                                       !- Nominal Floor to Floor Height {m}
  ,                                       !- Default Construction Set Name
  ,                                       !- Default Schedule Set Name
  ;                                       !- Group Rendering Name

OS:BuildingStory,
  {eb7bffc6-0e76-49c3-92c1-ff73b9632dbd}, !- Handle
  Level 2,                                !- Name
  ,                                       !- Nominal Z Coordinate {m}
  3.048,                                  !- Nominal Floor to Floor Height {m}
  ,                                       !- Default Construction Set Name
  ,                                       !- Default Schedule Set Name
  ;                                       !- Group Rendering Name

OS:BuildingStory,
  {76dbad57-e292-428d-9d8e-db2ce6173fcd}, !- Handle
  Roof Base,                              !- Name
  ,                                       !- Nominal Z Coordinate {m}
  6.096,                                  !- Nominal Floor to Floor Height {m}
  ,                                       !- Default Construction Set Name
  ,                                       !- Default Schedule Set Name
  ;                                       !- Group Rendering Name

OS:Space,
  {81569331-3e52-4071-a16d-dd6d1aa8eb3b}, !- Handle
  sp-1-Space,                             !- Name
  ,                                       !- Space Type Name
  ,                                       !- Default Construction Set Name
  ,                                       !- Default Schedule Set Name
  ,                                       !- Direction of Relative North {deg}
  ,                                       !- X Origin {m}
  ,                                       !- Y Origin {m}
  ,                                       !- Z Origin {m}
  {89e46e25-4430-44f4-b347-5b9f7e374582}, !- Building Story Name
  {36079b04-5456-4a39-9bd0-4f4b1c5eeee4}; !- Thermal Zone Name

OS:Surface,
  {a2c861c1-91d6-4708-aaa8-b7d1061db0f6}, !- Handle
  Surface 1,                              !- Name
  Floor,                                  !- Surface Type
  ,                                       !- Construction Name
  {81569331-3e52-4071-a16d-dd6d1aa8eb3b}, !- Space Name
  Ground,                                 !- Outside Boundary Condition
  ,                                       !- Outside Boundary Condition Object
  NoSun,                                  !- Sun Exposure
  NoWind,                                 !- Wind Exposure
  ,                                       !- View Factor to Ground
  ,                                       !- Number of Vertices
  0, 0, 0,                                !- X,Y,Z Vertex 1 {m}
  0, 12.192, 0,                           !- X,Y,Z Vertex 2 {m}
  12.192, 12.192, 0,                      !- X,Y,Z Vertex 3 {m}
  12.192, 0, 0;                           !- X,Y,Z Vertex 4 {m}

OS:Surface,
  {f5eafac4-ab34-43fb-8a5b-989dfed7a7cb}, !- Handle
  Surface 2,                              !- Name
  Wall,                                   !- Surface Type
  ,                                       !- Construction Name
  {81569331-3e52-4071-a16d-dd6d1aa8eb3b}, !- Space Name
  Outdoors,                               !- Outside Boundary Condition
  ,                                       !- Outside Boundary Condition Object
  SunExposed,                             !- Sun Exposure
  WindExposed,                            !- Wind Exposure
  ,                                       !- View Factor to Ground
  ,                                       !- Number of Vertices
  0, 0, 0,                                !- X,Y,Z Vertex 1 {m}
  0, 0, 3.048,                            !- X,Y,Z Vertex 2 {m}
  0, 12.192, 3.048,                       !- X,Y,Z Vertex 3 {m}
  0, 12.192, 0;                           !- X,Y,Z Vertex 4 {m}

OS:Surface,
  {f95c83bb-fcf8-4820-8e8f-a4e485ed659f}, !- Handle
  Surface 3,                              !- Name
  Wall,                                   !- Surface Type
  ,                                       !- Construction Name
  {81569331-3e52-4071-a16d-dd6d1aa8eb3b}, !- Space Name
  Outdoors,                               !- Outside Boundary Condition
  ,                                       !- Outside Boundary Condition Object
  SunExposed,                             !- Sun Exposure
  WindExposed,                            !- Wind Exposure
  ,                                       !- View Factor to Ground
  ,                                       !- Number of Vertices
  0, 0, 0,                                !- X,Y,Z Vertex 1 {m}
  12.192, 0, 0,                           !- X,Y,Z Vertex 2 {m}
  12.192, 0, 3.048,                       !- X,Y,Z Vertex 3 {m}
  0, 0, 3.048;                            !- X,Y,Z Vertex 4 {m}

OS:Surface,
  {7898190e-d8fa-4a8f-b3ff-325d9a14dfc3}, !- Handle
  Surface 4,                              !- Name
  Wall,                                   !- Surface Type
  ,                                       !- Construction Name
  {81569331-3e52-4071-a16d-dd6d1aa8eb3b}, !- Space Name
  Outdoors,                               !- Outside Boundary Condition
  ,                                       !- Outside Boundary Condition Object
  SunExposed,                             !- Sun Exposure
  WindExposed,                            !- Wind Exposure
  ,                                       !- View Factor to Ground
  ,                                       !- Number of Vertices
  12.192, 0, 0,                           !- X,Y,Z Vertex 1 {m}
  12.192, 12.192, 0,                      !- X,Y,Z Vertex 2 {m}
  12.192, 12.192, 3.048,                  !- X,Y,Z Vertex 3 {m}
  12.192, 0, 3.048;                       !- X,Y,Z Vertex 4 {m}

OS:Surface,
  {7bffe1d2-da77-44f2-be07-398dc9792c58}, !- Handle
  Surface 5,                              !- Name
  Wall,                                   !- Surface Type
  ,                                       !- Construction Name
  {81569331-3e52-4071-a16d-dd6d1aa8eb3b}, !- Space Name
  Outdoors,                               !- Outside Boundary Condition
  ,                                       !- Outside Boundary Condition Object
  SunExposed,                             !- Sun Exposure
  WindExposed,                            !- Wind Exposure
  ,                                       !- View Factor to Ground
  ,                                       !- Number of Vertices
  12.192, 12.192, 0,                      !- X,Y,Z Vertex 1 {m}
  0, 12.192, 0,                           !- X,Y,Z Vertex 2 {m}
  0, 12.192, 3.048,                       !- X,Y,Z Vertex 3 {m}
  12.192, 12.192, 3.048;                  !- X,Y,Z Vertex 4 {m}

OS:Surface,
  {fd4a22c3-7972-4af8-add7-7298d755ec27}, !- Handle
  Surface 6,                              !- Name
  RoofCeiling,                            !- Surface Type
  ,                                       !- Construction Name
  {81569331-3e52-4071-a16d-dd6d1aa8eb3b}, !- Space Name
  Surface,                                !- Outside Boundary Condition
  {f60e69c4-4879-4f4a-a35a-4ae0cad4d13c}, !- Outside Boundary Condition Object
  NoSun,                                  !- Sun Exposure
  NoWind,                                 !- Wind Exposure
  ,                                       !- View Factor to Ground
  ,                                       !- Number of Vertices
  0, 0, 3.048,                            !- X,Y,Z Vertex 1 {m}
  12.192, 0, 3.048,                       !- X,Y,Z Vertex 2 {m}
  12.192, 12.192, 3.048,                  !- X,Y,Z Vertex 3 {m}
  0, 12.192, 3.048;                       !- X,Y,Z Vertex 4 {m}

OS:Space,
  {7abfd9a3-eca4-452c-bcc0-a5653f120308}, !- Handle
  sp-2-Space,                             !- Name
  ,                                       !- Space Type Name
  ,                                       !- Default Construction Set Name
  ,                                       !- Default Schedule Set Name
  ,                                       !- Direction of Relative North {deg}
  ,                                       !- X Origin {m}
  ,                                       !- Y Origin {m}
  ,                                       !- Z Origin {m}
  {eb7bffc6-0e76-49c3-92c1-ff73b9632dbd}, !- Building Story Name
  {bb5ea3c1-1f45-4854-89aa-415008c7d933}; !- Thermal Zone Name

OS:Surface,
  {f60e69c4-4879-4f4a-a35a-4ae0cad4d13c}, !- Handle
  Surface 7,                              !- Name
  Floor,                                  !- Surface Type
  ,                                       !- Construction Name
  {7abfd9a3-eca4-452c-bcc0-a5653f120308}, !- Space Name
  Surface,                                !- Outside Boundary Condition
  {fd4a22c3-7972-4af8-add7-7298d755ec27}, !- Outside Boundary Condition Object
  NoSun,                                  !- Sun Exposure
  NoWind,                                 !- Wind Exposure
  ,                                       !- View Factor to Ground
  ,                                       !- Number of Vertices
  0, 0, 3.048,                            !- X,Y,Z Vertex 1 {m}
  0, 12.192, 3.048,                       !- X,Y,Z Vertex 2 {m}
  12.192, 12.192, 3.048,                  !- X,Y,Z Vertex 3 {m}
  12.192, 0, 3.048;                       !- X,Y,Z Vertex 4 {m}

OS:Surface,
  {f70fc884-1074-4923-a48a-a2d32802002c}, !- Handle
  Surface 8,                              !- Name
  Wall,                                   !- Surface Type
  ,                                       !- Construction Name
  {7abfd9a3-eca4-452c-bcc0-a5653f120308}, !- Space Name
  Outdoors,                               !- Outside Boundary Condition
  ,                                       !- Outside Boundary Condition Object
  SunExposed,                             !- Sun Exposure
  WindExposed,                            !- Wind Exposure
  ,                                       !- View Factor to Ground
  ,                                       !- Number of Vertices
  0, 0, 3.048,                            !- X,Y,Z Vertex 1 {m}
  0, 0, 6.096,                            !- X,Y,Z Vertex 2 {m}
  0, 12.192, 6.096,                       !- X,Y,Z Vertex 3 {m}
  0, 12.192, 3.048;                       !- X,Y,Z Vertex 4 {m}

OS:Surface,
  {82805b93-102a-45fa-8b6c-777b01feff3f}, !- Handle
  Surface 9,                              !- Name
  Wall,                                   !- Surface Type
  ,                                       !- Construction Name
  {7abfd9a3-eca4-452c-bcc0-a5653f120308}, !- Space Name
  Outdoors,                               !- Outside Boundary Condition
  ,                                       !- Outside Boundary Condition Object
  SunExposed,                             !- Sun Exposure
  WindExposed,                            !- Wind Exposure
  ,                                       !- View Factor to Ground
  ,                                       !- Number of Vertices
  0, 0, 3.048,                            !- X,Y,Z Vertex 1 {m}
  12.192, 0, 3.048,                       !- X,Y,Z Vertex 2 {m}
  12.192, 0, 6.096,                       !- X,Y,Z Vertex 3 {m}
  0, 0, 6.096;                            !- X,Y,Z Vertex 4 {m}

OS:Surface,
  {f5cf33bd-534b-4ad2-97c8-6d038ac7abc7}, !- Handle
  Surface 10,                             !- Name
  Wall,                                   !- Surface Type
  ,                                       !- Construction Name
  {7abfd9a3-eca4-452c-bcc0-a5653f120308}, !- Space Name
  Outdoors,                               !- Outside Boundary Condition
  ,                                       !- Outside Boundary Condition Object
  SunExposed,                             !- Sun Exposure
  WindExposed,                            !- Wind Exposure
  ,                                       !- View Factor to Ground
  ,                                       !- Number of Vertices
  12.192, 0, 3.048,                       !- X,Y,Z Vertex 1 {m}
  12.192, 12.192, 3.048,                  !- X,Y,Z Vertex 2 {m}
  12.192, 12.192, 6.096,                  !- X,Y,Z Vertex 3 {m}
  12.192, 0, 6.096;                       !- X,Y,Z Vertex 4 {m}

OS:Surface,
  {ada32f81-b445-42f2-b006-f4d4349f5acd}, !- Handle
  Surface 11,                             !- Name
  Wall,                                   !- Surface Type
  ,                                       !- Construction Name
  {7abfd9a3-eca4-452c-bcc0-a5653f120308}, !- Space Name
  Outdoors,                               !- Outside Boundary Condition
  ,                                       !- Outside Boundary Condition Object
  SunExposed,                             !- Sun Exposure
  WindExposed,                            !- Wind Exposure
  ,                                       !- View Factor to Ground
  ,                                       !- Number of Vertices
  12.192, 12.192, 3.048,                  !- X,Y,Z Vertex 1 {m}
  0, 12.192, 3.048,                       !- X,Y,Z Vertex 2 {m}
  0, 12.192, 6.096,                       !- X,Y,Z Vertex 3 {m}
  12.192, 12.192, 6.096;                  !- X,Y,Z Vertex 4 {m}

OS:Surface,
  {fa650bc9-6658-4361-9f84-96b5b8ffdcff}, !- Handle
  Surface 12,                             !- Name
  RoofCeiling,                            !- Surface Type
  ,                                       !- Construction Name
  {7abfd9a3-eca4-452c-bcc0-a5653f120308}, !- Space Name
  Outdoors,                               !- Outside Boundary Condition
  ,                                       !- Outside Boundary Condition Object
  SunExposed,                             !- Sun Exposure
  WindExposed,                            !- Wind Exposure
  ,                                       !- View Factor to Ground
  ,                                       !- Number of Vertices
  0, 0, 6.096,                            !- X,Y,Z Vertex 1 {m}
  6.096, 6.096, 11.03028528,              !- X,Y,Z Vertex 2 {m}
  0, 12.192, 6.096;                       !- X,Y,Z Vertex 3 {m}

OS:Surface,
  {849a32ad-8275-40e4-b9ea-badf7943efe5}, !- Handle
  Surface 13,                             !- Name
  RoofCeiling,                            !- Surface Type
  ,                                       !- Construction Name
  {7abfd9a3-eca4-452c-bcc0-a5653f120308}, !- Space Name
  Outdoors,                               !- Outside Boundary Condition
  ,                                       !- Outside Boundary Condition Object
  SunExposed,                             !- Sun Exposure
  WindExposed,                            !- Wind Exposure
  ,                                       !- View Factor to Ground
  ,                                       !- Number of Vertices
  12.192, 12.192, 6.096,                  !- X,Y,Z Vertex 1 {m}
  0, 12.192, 6.096,                       !- X,Y,Z Vertex 2 {m}
  6.096, 6.096, 11.03028528;              !- X,Y,Z Vertex 3 {m}

OS:Surface,
  {9c3d82fa-e4c0-447a-be6e-3822466938b1}, !- Handle
  Surface 14,                             !- Name
  RoofCeiling,                            !- Surface Type
  ,                                       !- Construction Name
  {7abfd9a3-eca4-452c-bcc0-a5653f120308}, !- Space Name
  Outdoors,                               !- Outside Boundary Condition
  ,                                       !- Outside Boundary Condition Object
  SunExposed,                             !- Sun Exposure
  WindExposed,                            !- Wind Exposure
  ,                                       !- View Factor to Ground
  ,                                       !- Number of Vertices
  12.192, 0, 6.096,                       !- X,Y,Z Vertex 1 {m}
  12.192, 12.192, 6.096,                  !- X,Y,Z Vertex 2 {m}
  6.096, 6.096, 11.03028528;              !- X,Y,Z Vertex 3 {m}

OS:Surface,
  {3408abd7-0586-4214-af64-732346631ba8}, !- Handle
  Surface 15,                             !- Name
  Wall,                                   !- Surface Type
  ,                                       !- Construction Name
  {7abfd9a3-eca4-452c-bcc0-a5653f120308}, !- Space Name
  Outdoors,                               !- Outside Boundary Condition
  ,                                       !- Outside Boundary Condition Object
  SunExposed,                             !- Sun Exposure
  WindExposed,                            !- Wind Exposure
  ,                                       !- View Factor to Ground
  ,                                       !- Number of Vertices
  7.63795272, 0, 6.096,                   !- X,Y,Z Vertex 1 {m}
  6.096, 4.111752, 9.179914584,           !- X,Y,Z Vertex 2 {m}
  6.096, 0, 9.179914584;                  !- X,Y,Z Vertex 3 {m}

OS:Surface,
  {a1943b86-e72b-4d82-b968-11d50d9455f0}, !- Handle
  Surface 16,                             !- Name
  Wall,                                   !- Surface Type
  ,                                       !- Construction Name
  {7abfd9a3-eca4-452c-bcc0-a5653f120308}, !- Space Name
  Outdoors,                               !- Outside Boundary Condition
  ,                                       !- Outside Boundary Condition Object
  SunExposed,                             !- Sun Exposure
  WindExposed,                            !- Wind Exposure
  ,                                       !- View Factor to Ground
  ,                                       !- Number of Vertices
  4.554042708, 0, 6.096,                  !- X,Y,Z Vertex 1 {m}
  6.096, 0, 9.179914584,                  !- X,Y,Z Vertex 2 {m}
  6.096, 4.111752, 9.179914584;           !- X,Y,Z Vertex 3 {m}

OS:Surface,
  {6bf09e87-6c7f-40bc-b5fb-09a95e82505e}, !- Handle
  Surface 17,                             !- Name
  RoofCeiling,                            !- Surface Type
  ,                                       !- Construction Name
  {7abfd9a3-eca4-452c-bcc0-a5653f120308}, !- Space Name
  Outdoors,                               !- Outside Boundary Condition
  ,                                       !- Outside Boundary Condition Object
  SunExposed,                             !- Sun Exposure
  WindExposed,                            !- Wind Exposure
  ,                                       !- View Factor to Ground
  ,                                       !- Number of Vertices
  4.554042708, 0, 6.096,                  !- X,Y,Z Vertex 1 {m}
  6.096, 4.111752, 9.179914584,           !- X,Y,Z Vertex 2 {m}
  7.63795272, 0, 6.096,                   !- X,Y,Z Vertex 3 {m}
  12.192, 0, 6.096,                       !- X,Y,Z Vertex 4 {m}
  6.096, 6.096, 11.03028528,              !- X,Y,Z Vertex 5 {m}
  0, 0, 6.096;                            !- X,Y,Z Vertex 6 {m}

OS:Surface,
  {5d229efb-fdd8-43fa-8541-1bd7bdfab7d7}, !- Handle
  Surface 18,                             !- Name
  Wall,                                   !- Surface Type
  ,                                       !- Construction Name
  {7abfd9a3-eca4-452c-bcc0-a5653f120308}, !- Space Name
  Outdoors,                               !- Outside Boundary Condition
  ,                                       !- Outside Boundary Condition Object
  SunExposed,                             !- Sun Exposure
  WindExposed,                            !- Wind Exposure
  ,                                       !- View Factor to Ground
  ,                                       !- Number of Vertices
  4.554042708, 0, 6.096,                  !- X,Y,Z Vertex 1 {m}
  7.63795272, 0, 6.096,                   !- X,Y,Z Vertex 2 {m}
  6.096, 0, 9.179914584;                  !- X,Y,Z Vertex 3 {m}

OS:ThermalZone,
  {bb5ea3c1-1f45-4854-89aa-415008c7d933}, !- Handle
  sp-2-Zone,                              !- Name
  ,                                       !- Multiplier
  ,                                       !- Ceiling Height {m}
  ,                                       !- Volume {m3}
  ,                                       !- Floor Area {m2}
  ,                                       !- Zone Inside Convection Algorithm
  ,                                       !- Zone Outside Convection Algorithm
  ,                                       !- Zone Conditioning Equipment List Name
  {976888b8-d5ba-4165-ba10-7f98dda049fe}, !- Zone Air Inlet Port List
  {f085a5d9-f27f-416f-9ad5-9dd33202ee60}, !- Zone Air Exhaust Port List
  {ec79693b-5e14-4286-9782-526bf62b32bb}, !- Zone Air Node Name
  ,                                       !- Zone Return Air Node Name
  ,                                       !- Primary Daylighting Control Name
  ,                                       !- Fraction of Zone Controlled by Primary Daylighting Control
  ,                                       !- Secondary Daylighting Control Name
  ,                                       !- Fraction of Zone Controlled by Secondary Daylighting Control
  ,                                       !- Illuminance Map Name
  ,                                       !- Group Rendering Name
  ,                                       !- Thermostat Name
  No;                                     !- Use Ideal Air Loads

OS:Node,
  {66c7c41d-6fd3-4692-8eaa-fb45d5c9cb79}, !- Handle
  Node 1,                                 !- Name
  {ec79693b-5e14-4286-9782-526bf62b32bb}, !- Inlet Port
  ;                                       !- Outlet Port

OS:Connection,
  {ec79693b-5e14-4286-9782-526bf62b32bb}, !- Handle
  {43df7cf2-b629-479a-a937-e6081aa6e9bd}, !- Name
  {bb5ea3c1-1f45-4854-89aa-415008c7d933}, !- Source Object
  11,                                     !- Outlet Port
  {66c7c41d-6fd3-4692-8eaa-fb45d5c9cb79}, !- Target Object
  2;                                      !- Inlet Port

OS:PortList,
  {976888b8-d5ba-4165-ba10-7f98dda049fe}, !- Handle
  Port List 1,                            !- Name
  {bb5ea3c1-1f45-4854-89aa-415008c7d933}; !- HVAC Component

OS:PortList,
  {f085a5d9-f27f-416f-9ad5-9dd33202ee60}, !- Handle
  Port List 2,                            !- Name
  {bb5ea3c1-1f45-4854-89aa-415008c7d933}; !- HVAC Component

OS:Sizing:Zone,
  {5f415f14-555a-441e-b618-806a2a5c4280}, !- Handle
  {bb5ea3c1-1f45-4854-89aa-415008c7d933}, !- Zone or ZoneList Name
  14,                                     !- Zone Cooling Design Supply Air Temperature {C}
  40,                                     !- Zone Heating Design Supply Air Temperature {C}
  0.0085,                                 !- Zone Cooling Design Supply Air Humidity Ratio {kg-H2O/kg-air}
  0.008,                                  !- Zone Heating Design Supply Air Humidity Ratio {kg-H2O/kg-air}
  ,                                       !- Zone Heating Sizing Factor
  ,                                       !- Zone Cooling Sizing Factor
  DesignDay,                              !- Cooling Design Air Flow Method
  ,                                       !- Cooling Design Air Flow Rate {m3/s}
  ,                                       !- Cooling Minimum Air Flow per Zone Floor Area {m3/s-m2}
  ,                                       !- Cooling Minimum Air Flow {m3/s}
  ,                                       !- Cooling Minimum Air Flow Fraction
  DesignDay,                              !- Heating Design Air Flow Method
  ,                                       !- Heating Design Air Flow Rate {m3/s}
  ,                                       !- Heating Maximum Air Flow per Zone Floor Area {m3/s-m2}
  ,                                       !- Heating Maximum Air Flow {m3/s}
  ,                                       !- Heating Maximum Air Flow Fraction
  ,                                       !- Design Zone Air Distribution Effectiveness in Cooling Mode
  ;                                       !- Design Zone Air Distribution Effectiveness in Heating Mode

OS:ZoneHVAC:EquipmentList,
  {b61c3796-c0f9-44df-8ed8-341a9512265d}, !- Handle
  Zone HVAC Equipment List 1,             !- Name
  {bb5ea3c1-1f45-4854-89aa-415008c7d933}; !- Thermal Zone

OS:ThermalZone,
  {36079b04-5456-4a39-9bd0-4f4b1c5eeee4}, !- Handle
  sp-1-Zone,                              !- Name
  ,                                       !- Multiplier
  ,                                       !- Ceiling Height {m}
  ,                                       !- Volume {m3}
  ,                                       !- Floor Area {m2}
  ,                                       !- Zone Inside Convection Algorithm
  ,                                       !- Zone Outside Convection Algorithm
  ,                                       !- Zone Conditioning Equipment List Name
  {ba529f79-cdde-419c-9001-e3127c2acf5f}, !- Zone Air Inlet Port List
  {ac636109-e667-42cf-8ceb-37a5b53cb71a}, !- Zone Air Exhaust Port List
  {10cdf0d6-6465-439a-b7b4-e99a1fb437f3}, !- Zone Air Node Name
  ,                                       !- Zone Return Air Node Name
  ,                                       !- Primary Daylighting Control Name
  ,                                       !- Fraction of Zone Controlled by Primary Daylighting Control
  ,                                       !- Secondary Daylighting Control Name
  ,                                       !- Fraction of Zone Controlled by Secondary Daylighting Control
  ,                                       !- Illuminance Map Name
  ,                                       !- Group Rendering Name
  ,                                       !- Thermostat Name
  No;                                     !- Use Ideal Air Loads

OS:Node,
  {72e28cfc-6c7c-4f73-bed5-13c10d7d2ed4}, !- Handle
  Node 2,                                 !- Name
  {10cdf0d6-6465-439a-b7b4-e99a1fb437f3}, !- Inlet Port
  ;                                       !- Outlet Port

OS:Connection,
  {10cdf0d6-6465-439a-b7b4-e99a1fb437f3}, !- Handle
  {b149b69c-ba6b-43ef-9953-57fa52dbafb7}, !- Name
  {36079b04-5456-4a39-9bd0-4f4b1c5eeee4}, !- Source Object
  11,                                     !- Outlet Port
  {72e28cfc-6c7c-4f73-bed5-13c10d7d2ed4}, !- Target Object
  2;                                      !- Inlet Port

OS:PortList,
  {ba529f79-cdde-419c-9001-e3127c2acf5f}, !- Handle
  Port List 3,                            !- Name
  {36079b04-5456-4a39-9bd0-4f4b1c5eeee4}; !- HVAC Component

OS:PortList,
  {ac636109-e667-42cf-8ceb-37a5b53cb71a}, !- Handle
  Port List 4,                            !- Name
  {36079b04-5456-4a39-9bd0-4f4b1c5eeee4}; !- HVAC Component

OS:Sizing:Zone,
  {d2da84a1-14dd-4c7e-ae77-26be562644e6}, !- Handle
  {36079b04-5456-4a39-9bd0-4f4b1c5eeee4}, !- Zone or ZoneList Name
  14,                                     !- Zone Cooling Design Supply Air Temperature {C}
  40,                                     !- Zone Heating Design Supply Air Temperature {C}
  0.0085,                                 !- Zone Cooling Design Supply Air Humidity Ratio {kg-H2O/kg-air}
  0.008,                                  !- Zone Heating Design Supply Air Humidity Ratio {kg-H2O/kg-air}
  ,                                       !- Zone Heating Sizing Factor
  ,                                       !- Zone Cooling Sizing Factor
  DesignDay,                              !- Cooling Design Air Flow Method
  ,                                       !- Cooling Design Air Flow Rate {m3/s}
  ,                                       !- Cooling Minimum Air Flow per Zone Floor Area {m3/s-m2}
  ,                                       !- Cooling Minimum Air Flow {m3/s}
  ,                                       !- Cooling Minimum Air Flow Fraction
  DesignDay,                              !- Heating Design Air Flow Method
  ,                                       !- Heating Design Air Flow Rate {m3/s}
  ,                                       !- Heating Maximum Air Flow per Zone Floor Area {m3/s-m2}
  ,                                       !- Heating Maximum Air Flow {m3/s}
  ,                                       !- Heating Maximum Air Flow Fraction
  ,                                       !- Design Zone Air Distribution Effectiveness in Cooling Mode
  ;                                       !- Design Zone Air Distribution Effectiveness in Heating Mode

OS:ZoneHVAC:EquipmentList,
  {6c9d4303-69be-4d5d-9137-815faf066f2c}, !- Handle
  Zone HVAC Equipment List 2,             !- Name
  {36079b04-5456-4a39-9bd0-4f4b1c5eeee4}; !- Thermal Zone

