
OS:Version,
  {48b8ac40-fbe3-44b5-acab-883f799f9514}, !- Handle
  1.12.2;                                 !- Version Identifier

OS:SpaceType,
  {05b6653c-4891-476d-87c0-0ceca003c639}, !- Handle
  189.1-2009 - Office - Lobby - CZ4-8,    !- Name
  ,                                       !- Default Construction Set Name
  {9b017737-9a37-48b9-893e-fa46760187ff}, !- Default Schedule Set Name
  {edb2391e-acd2-45d9-8fe1-303224994825}, !- Group Rendering Name
  {e9c656f5-782c-4505-aa96-912b1e8f739a}, !- Design Specification Outdoor Air Object Name
  Office,                                 !- Standards Building Type
  Lobby;                                  !- Standards Space Type

OS:DefaultScheduleSet,
  {9b017737-9a37-48b9-893e-fa46760187ff}, !- Handle
  189.1-2009 - Office - Lobby - CZ4-8 Schedule Set, !- Name
  ,                                       !- Hours of Operation Schedule Name
  {5acb0162-5699-4a69-9374-623e31656f81}, !- Number of People Schedule Name
  {485e8c6a-61b7-4495-8f0f-86994ba44561}, !- People Activity Level Schedule Name
  {990da3ac-b874-4e29-9a98-f55763a00774}, !- Lighting Schedule Name
  {062557b3-1009-41a0-ac4c-cdfbb9ebf5d8}, !- Electric Equipment Schedule Name
  ,                                       !- Gas Equipment Schedule Name
  ,                                       !- Hot Water Equipment Schedule Name
  {21f098cb-583e-45ac-9506-03970f42f105}, !- Infiltration Schedule Name
  ,                                       !- Steam Equipment Schedule Name
  ;                                       !- Other Equipment Schedule Name

OS:Rendering:Color,
  {edb2391e-acd2-45d9-8fe1-303224994825}, !- Handle
  Rendering Color 23,                     !- Name
  230,                                    !- Rendering Red Value
  157,                                    !- Rendering Green Value
  120;                                    !- Rendering Blue Value

OS:DesignSpecification:OutdoorAir,
  {e9c656f5-782c-4505-aa96-912b1e8f739a}, !- Handle
  189.1-2009 - Office - Lobby - CZ4-8 Ventilation, !- Name
  Sum,                                    !- Outdoor Air Method
  0.007079211648,                         !- Outdoor Air Flow per Person {m3/s-person}
  ,                                       !- Outdoor Air Flow per Floor Area {m3/s-m2}
  ,                                       !- Outdoor Air Flow Rate {m3/s}
  ,                                       !- Outdoor Air Flow Air Changes per Hour {1/hr}
  ;                                       !- Outdoor Air Flow Rate Fraction Schedule Name

OS:Schedule:Ruleset,
  {5acb0162-5699-4a69-9374-623e31656f81}, ! Handle
  Office Misc Occ,                        ! Name
  {e17289a8-ffe6-417a-bb51-70961be372d0}, ! Schedule Type Limits Name
  {4a2ec7c0-e600-4b4d-ab11-8bdfb298fa63}, ! Default Day Schedule Name
  {275a6a36-d595-4485-83c2-54bef549536f}, ! Summer Design Day Schedule Name
  {939cdc84-9dd6-4f01-bea7-6c292eccf83a}; ! Winter Design Day Schedule Name

OS:Schedule:Day,
  {4a2ec7c0-e600-4b4d-ab11-8bdfb298fa63}, ! Handle
  Office Bldg Occ Default Schedule 1,     ! Name
  {e17289a8-ffe6-417a-bb51-70961be372d0}, ! Schedule Type Limits Name
  ,                                       ! Interpolate to Timestep
  6,                                      !- Hour 1
  0,                                      !- Minute 1
  0,                                      !- Value Until Time 1
  7,                                      !- Hour 2
  0,                                      !- Minute 2
  0.100000001490116,                      !- Value Until Time 2
  8,                                      !- Hour 3
  0,                                      !- Minute 3
  0.200000002980232,                      !- Value Until Time 3
  20,                                     !- Hour 4
  0,                                      !- Minute 4
  0.400000005960464,                      !- Value Until Time 4
  22,                                     !- Hour 5
  0,                                      !- Minute 5
  0.100000001490116,                      !- Value Until Time 5
  24,                                     !- Hour 6
  0,                                      !- Minute 6
  0.0500000007450581;                     !- Value Until Time 6

OS:Schedule:Day,
  {275a6a36-d595-4485-83c2-54bef549536f}, ! Handle
  Office Bldg Occ Summer Design Day 1,    ! Name
  {e17289a8-ffe6-417a-bb51-70961be372d0}, ! Schedule Type Limits Name
  ,                                       ! Interpolate to Timestep
  6,                                      ! Hour 1
  0,                                      ! Minute 1
  0,                                      ! Value Until Time 1
  22,                                     ! Hour 2
  0,                                      ! Minute 2
  1,                                      ! Value Until Time 2
  24,                                     ! Hour 3
  0,                                      ! Minute 3
  0.050000000000000003;                   ! Value Until Time 3

OS:Schedule:Day,
  {939cdc84-9dd6-4f01-bea7-6c292eccf83a}, ! Handle
  Office Bldg Occ Winter Design Day 1,    ! Name
  {e17289a8-ffe6-417a-bb51-70961be372d0}, ! Schedule Type Limits Name
  ,                                       ! Interpolate to Timestep
  24,                                     ! Hour 1
  0,                                      ! Minute 1
  0;                                      ! Value Until Time 1

OS:Schedule:Rule,
  {485a1721-9405-442e-be9c-aad08ed4fe5b}, ! Handle
  Office Misc Occ Rule 1,                 ! Name
  {5acb0162-5699-4a69-9374-623e31656f81}, ! Schedule Ruleset Name
  0,                                      ! Rule Order
  {5d98fc85-c8c0-4d4f-8a04-86ed551e40d1}, ! Day Schedule Name
  Yes,                                    ! Apply Sunday
  No,                                     ! Apply Monday
  No,                                     ! Apply Tuesday
  No,                                     ! Apply Wednesday
  No,                                     ! Apply Thursday
  No,                                     ! Apply Friday
  No,                                     ! Apply Saturday
  ,                                       ! Apply Holiday
  DateRange,                              ! Date Specification Type
  1,                                      ! Start Month
  1,                                      ! Start Day
  12,                                     ! End Month
  31;                                     ! End Day

OS:Schedule:Rule,
  {2a598956-0f12-4e40-b97b-925e69ebdc4d}, ! Handle
  Office Misc Occ Rule 2,                 ! Name
  {5acb0162-5699-4a69-9374-623e31656f81}, ! Schedule Ruleset Name
  1,                                      ! Rule Order
  {191ab6c5-f55d-4e50-b1aa-02b4278150e2}, ! Day Schedule Name
  No,                                     ! Apply Sunday
  No,                                     ! Apply Monday
  No,                                     ! Apply Tuesday
  No,                                     ! Apply Wednesday
  No,                                     ! Apply Thursday
  No,                                     ! Apply Friday
  Yes,                                    ! Apply Saturday
  ,                                       ! Apply Holiday
  DateRange,                              ! Date Specification Type
  1,                                      ! Start Month
  1,                                      ! Start Day
  12,                                     ! End Month
  31;                                     ! End Day

OS:Schedule:Day,
  {5d98fc85-c8c0-4d4f-8a04-86ed551e40d1}, ! Handle
  Office Bldg Occ Rule 1 Day Schedule 1,  ! Name
  {e17289a8-ffe6-417a-bb51-70961be372d0}, ! Schedule Type Limits Name
  ,                                       ! Interpolate to Timestep
  24,                                     ! Hour 1
  0,                                      ! Minute 1
  0;                                      ! Value Until Time 1

OS:Schedule:Day,
  {191ab6c5-f55d-4e50-b1aa-02b4278150e2}, ! Handle
  Office Bldg Occ Rule 2 Day Schedule 1,  ! Name
  {e17289a8-ffe6-417a-bb51-70961be372d0}, ! Schedule Type Limits Name
  ,                                       ! Interpolate to Timestep
  6,                                      !- Hour 1
  0,                                      !- Minute 1
  0,                                      !- Value Until Time 1
  8,                                      !- Hour 2
  0,                                      !- Minute 2
  0.100000001490116,                      !- Value Until Time 2
  14,                                     !- Hour 3
  0,                                      !- Minute 3
  0.25,                                   !- Value Until Time 3
  17,                                     !- Hour 4
  0,                                      !- Minute 4
  0.100000001490116,                      !- Value Until Time 4
  24,                                     !- Hour 5
  0,                                      !- Minute 5
  0;                                      !- Value Until Time 5

OS:Schedule:Ruleset,
  {485e8c6a-61b7-4495-8f0f-86994ba44561}, ! Handle
  Office Activity,                        ! Name
  {c45e1778-cb73-4046-b851-3a86582ad9dd}, ! Schedule Type Limits Name
  {565a4d6c-5e6a-49d7-bcf2-b9d0b604ff39}, ! Default Day Schedule Name
  {8243b16c-50fc-4978-afc4-9584e8c9a84f}, ! Summer Design Day Schedule Name
  {b8badeff-dbd0-43a5-b69a-07d4700d43c4}; ! Winter Design Day Schedule Name

OS:Schedule:Day,
  {565a4d6c-5e6a-49d7-bcf2-b9d0b604ff39}, ! Handle
  Office Activity Default Schedule,       ! Name
  {c45e1778-cb73-4046-b851-3a86582ad9dd}, ! Schedule Type Limits Name
  ,                                       ! Interpolate to Timestep
  24,                                     !- Hour 1
  0,                                      !- Minute 1
  132;                                    !- Value Until Time 1

OS:Schedule:Day,
  {8243b16c-50fc-4978-afc4-9584e8c9a84f}, ! Handle
  Office Activity Summer Design Day,      ! Name
  {c45e1778-cb73-4046-b851-3a86582ad9dd}, ! Schedule Type Limits Name
  ,                                       ! Interpolate to Timestep
  24,                                     !- Hour 1
  0,                                      !- Minute 1
  132;                                    !- Value Until Time 1

OS:Schedule:Day,
  {b8badeff-dbd0-43a5-b69a-07d4700d43c4}, ! Handle
  Office Activity Winter Design Day,      ! Name
  {c45e1778-cb73-4046-b851-3a86582ad9dd}, ! Schedule Type Limits Name
  ,                                       ! Interpolate to Timestep
  24,                                     !- Hour 1
  0,                                      !- Minute 1
  132;                                    !- Value Until Time 1

OS:Schedule:Ruleset,
  {990da3ac-b874-4e29-9a98-f55763a00774}, ! Handle
  Office Bldg Light,                      ! Name
  {e17289a8-ffe6-417a-bb51-70961be372d0}, ! Schedule Type Limits Name
  {96151e46-9e39-4f5f-9397-286a25e68f1b}, ! Default Day Schedule Name
  {118934f3-e357-4da3-bb8c-aebb47e97d3e}, ! Summer Design Day Schedule Name
  {06b686b7-54ec-472e-8579-0c046bcb9713}; ! Winter Design Day Schedule Name

OS:Schedule:Day,
  {96151e46-9e39-4f5f-9397-286a25e68f1b}, ! Handle
  Office Bldg Light Default Schedule,     ! Name
  {e17289a8-ffe6-417a-bb51-70961be372d0}, ! Schedule Type Limits Name
  ,                                       ! Interpolate to Timestep
  5,                                      !- Hour 1
  0,                                      !- Minute 1
  0.05,                                   !- Value Until Time 1
  7,                                      !- Hour 2
  0,                                      !- Minute 2
  0.1,                                    !- Value Until Time 2
  8,                                      !- Hour 3
  0,                                      !- Minute 3
  0.3,                                    !- Value Until Time 3
  17,                                     !- Hour 4
  0,                                      !- Minute 4
  0.9,                                    !- Value Until Time 4
  18,                                     !- Hour 5
  0,                                      !- Minute 5
  0.7,                                    !- Value Until Time 5
  20,                                     !- Hour 6
  0,                                      !- Minute 6
  0.5,                                    !- Value Until Time 6
  22,                                     !- Hour 7
  0,                                      !- Minute 7
  0.3,                                    !- Value Until Time 7
  23,                                     !- Hour 8
  0,                                      !- Minute 8
  0.1,                                    !- Value Until Time 8
  24,                                     !- Hour 9
  0,                                      !- Minute 9
  0.05;                                   !- Value Until Time 9

OS:Schedule:Day,
  {118934f3-e357-4da3-bb8c-aebb47e97d3e}, ! Handle
  Office Bldg Light Summer Design Day,    ! Name
  {e17289a8-ffe6-417a-bb51-70961be372d0}, ! Schedule Type Limits Name
  ,                                       ! Interpolate to Timestep
  24,                                     ! Hour 1
  0,                                      ! Minute 1
  1;                                      ! Value Until Time 1

OS:Schedule:Day,
  {06b686b7-54ec-472e-8579-0c046bcb9713}, ! Handle
  Office Bldg Light Winter Design Day,    ! Name
  {e17289a8-ffe6-417a-bb51-70961be372d0}, ! Schedule Type Limits Name
  ,                                       ! Interpolate to Timestep
  24,                                     ! Hour 1
  0,                                      ! Minute 1
  0;                                      ! Value Until Time 1

OS:Schedule:Rule,
  {07412258-f37e-44ed-aa4d-acd35e4cc062}, ! Handle
  Office Bldg Light Rule 1,               ! Name
  {990da3ac-b874-4e29-9a98-f55763a00774}, ! Schedule Ruleset Name
  0,                                      ! Rule Order
  {666c3cd8-c87f-4bf6-87ad-81a6e88aed9d}, ! Day Schedule Name
  Yes,                                    ! Apply Sunday
  No,                                     ! Apply Monday
  No,                                     ! Apply Tuesday
  No,                                     ! Apply Wednesday
  No,                                     ! Apply Thursday
  No,                                     ! Apply Friday
  No,                                     ! Apply Saturday
  ,                                       ! Apply Holiday
  DateRange,                              ! Date Specification Type
  1,                                      ! Start Month
  1,                                      ! Start Day
  12,                                     ! End Month
  31;                                     ! End Day

OS:Schedule:Rule,
  {9d79ffc7-f703-4018-b4d9-98cacbcd2145}, ! Handle
  Office Bldg Light Rule 2,               ! Name
  {990da3ac-b874-4e29-9a98-f55763a00774}, ! Schedule Ruleset Name
  1,                                      ! Rule Order
  {cb942b70-ca8c-49c0-bd4b-c11dfc81896a}, ! Day Schedule Name
  No,                                     ! Apply Sunday
  No,                                     ! Apply Monday
  No,                                     ! Apply Tuesday
  No,                                     ! Apply Wednesday
  No,                                     ! Apply Thursday
  No,                                     ! Apply Friday
  Yes,                                    ! Apply Saturday
  ,                                       ! Apply Holiday
  DateRange,                              ! Date Specification Type
  1,                                      ! Start Month
  1,                                      ! Start Day
  12,                                     ! End Month
  31;                                     ! End Day

OS:Schedule:Day,
  {666c3cd8-c87f-4bf6-87ad-81a6e88aed9d}, ! Handle
  Office Bldg Light Rule 1 Day Schedule,  ! Name
  {e17289a8-ffe6-417a-bb51-70961be372d0}, ! Schedule Type Limits Name
  ,                                       ! Interpolate to Timestep
  24,                                     ! Hour 1
  0,                                      ! Minute 1
  0.050000000000000003;                   ! Value Until Time 1

OS:Schedule:Day,
  {cb942b70-ca8c-49c0-bd4b-c11dfc81896a}, ! Handle
  Office Bldg Light Rule 2 Day Schedule,  ! Name
  {e17289a8-ffe6-417a-bb51-70961be372d0}, ! Schedule Type Limits Name
  ,                                       ! Interpolate to Timestep
  6,                                      ! Hour 1
  0,                                      ! Minute 1
  0.050000000000000003,                   ! Value Until Time 1
  8,                                      ! Hour 2
  0,                                      ! Minute 2
  0.10000000000000001,                    ! Value Until Time 2
  14,                                     ! Hour 3
  0,                                      ! Minute 3
  0.5,                                    ! Value Until Time 3
  17,                                     ! Hour 4
  0,                                      ! Minute 4
  0.14999999999999999,                    ! Value Until Time 4
  24,                                     ! Hour 5
  0,                                      ! Minute 5
  0.050000000000000003;                   ! Value Until Time 5

OS:Schedule:Ruleset,
  {062557b3-1009-41a0-ac4c-cdfbb9ebf5d8}, ! Handle
  Office Bldg Equip,                      ! Name
  {e17289a8-ffe6-417a-bb51-70961be372d0}, ! Schedule Type Limits Name
  {c040fdc0-7870-4f49-be0a-7aec32873ae2}, ! Default Day Schedule Name
  {53fa2eb7-13fc-4862-8c06-3468b9e61dd5}, ! Summer Design Day Schedule Name
  {5f1103c2-84f9-46e8-9aaa-ef5421a823e0}; ! Winter Design Day Schedule Name

OS:Schedule:Day,
  {c040fdc0-7870-4f49-be0a-7aec32873ae2}, ! Handle
  Office Bldg Equip Default Schedule,     ! Name
  {e17289a8-ffe6-417a-bb51-70961be372d0}, ! Schedule Type Limits Name
  ,                                       ! Interpolate to Timestep
  8,                                      !- Hour 1
  0,                                      !- Minute 1
  0.4,                                    !- Value Until Time 1
  12,                                     !- Hour 2
  0,                                      !- Minute 2
  0.9,                                    !- Value Until Time 2
  13,                                     !- Hour 3
  0,                                      !- Minute 3
  0.8,                                    !- Value Until Time 3
  17,                                     !- Hour 4
  0,                                      !- Minute 4
  0.9,                                    !- Value Until Time 4
  18,                                     !- Hour 5
  0,                                      !- Minute 5
  0.8,                                    !- Value Until Time 5
  20,                                     !- Hour 6
  0,                                      !- Minute 6
  0.6,                                    !- Value Until Time 6
  22,                                     !- Hour 7
  0,                                      !- Minute 7
  0.5,                                    !- Value Until Time 7
  24,                                     !- Hour 8
  0,                                      !- Minute 8
  0.4;                                    !- Value Until Time 8

OS:Schedule:Day,
  {53fa2eb7-13fc-4862-8c06-3468b9e61dd5}, ! Handle
  Office Bldg Equip Summer Design Day,    ! Name
  {e17289a8-ffe6-417a-bb51-70961be372d0}, ! Schedule Type Limits Name
  ,                                       ! Interpolate to Timestep
  24,                                     ! Hour 1
  0,                                      ! Minute 1
  1;                                      ! Value Until Time 1

OS:Schedule:Day,
  {5f1103c2-84f9-46e8-9aaa-ef5421a823e0}, ! Handle
  Office Bldg Equip Winter Design Day,    ! Name
  {e17289a8-ffe6-417a-bb51-70961be372d0}, ! Schedule Type Limits Name
  ,                                       ! Interpolate to Timestep
  24,                                     ! Hour 1
  0,                                      ! Minute 1
  0;                                      ! Value Until Time 1

OS:Schedule:Rule,
  {8a675f14-f74a-45be-9126-08c60231a2d8}, ! Handle
  Office Bldg Equip Rule 1,               ! Name
  {062557b3-1009-41a0-ac4c-cdfbb9ebf5d8}, ! Schedule Ruleset Name
  0,                                      ! Rule Order
  {186a81f8-ee73-4605-860c-3e02f36575b1}, ! Day Schedule Name
  Yes,                                    ! Apply Sunday
  No,                                     ! Apply Monday
  No,                                     ! Apply Tuesday
  No,                                     ! Apply Wednesday
  No,                                     ! Apply Thursday
  No,                                     ! Apply Friday
  No,                                     ! Apply Saturday
  ,                                       ! Apply Holiday
  DateRange,                              ! Date Specification Type
  1,                                      ! Start Month
  1,                                      ! Start Day
  12,                                     ! End Month
  31;                                     ! End Day

OS:Schedule:Rule,
  {ea6e5fc6-3df9-4494-a1b6-1252dee570a1}, ! Handle
  Office Bldg Equip Rule 2,               ! Name
  {062557b3-1009-41a0-ac4c-cdfbb9ebf5d8}, ! Schedule Ruleset Name
  1,                                      ! Rule Order
  {e507454a-3bd3-4929-8de4-eb542853f4c7}, ! Day Schedule Name
  No,                                     ! Apply Sunday
  No,                                     ! Apply Monday
  No,                                     ! Apply Tuesday
  No,                                     ! Apply Wednesday
  No,                                     ! Apply Thursday
  No,                                     ! Apply Friday
  Yes,                                    ! Apply Saturday
  ,                                       ! Apply Holiday
  DateRange,                              ! Date Specification Type
  1,                                      ! Start Month
  1,                                      ! Start Day
  12,                                     ! End Month
  31;                                     ! End Day

OS:Schedule:Day,
  {186a81f8-ee73-4605-860c-3e02f36575b1}, ! Handle
  Office Bldg Equip Rule 1 Day Schedule,  ! Name
  {e17289a8-ffe6-417a-bb51-70961be372d0}, ! Schedule Type Limits Name
  ,                                       ! Interpolate to Timestep
  24,                                     ! Hour 1
  0,                                      ! Minute 1
  0.29999999999999999;                    ! Value Until Time 1

OS:Schedule:Day,
  {e507454a-3bd3-4929-8de4-eb542853f4c7}, ! Handle
  Office Bldg Equip Rule 2 Day Schedule,  ! Name
  {e17289a8-ffe6-417a-bb51-70961be372d0}, ! Schedule Type Limits Name
  ,                                       ! Interpolate to Timestep
  6,                                      ! Hour 1
  0,                                      ! Minute 1
  0.29999999999999999,                    ! Value Until Time 1
  8,                                      ! Hour 2
  0,                                      ! Minute 2
  0.40000000000000002,                    ! Value Until Time 2
  14,                                     ! Hour 3
  0,                                      ! Minute 3
  0.5,                                    ! Value Until Time 3
  17,                                     ! Hour 4
  0,                                      ! Minute 4
  0.34999999999999998,                    ! Value Until Time 4
  24,                                     ! Hour 5
  0,                                      ! Minute 5
  0.29999999999999999;                    ! Value Until Time 5

OS:Schedule:Ruleset,
  {21f098cb-583e-45ac-9506-03970f42f105}, ! Handle
  Office Infil Quarter On,                ! Name
  {e17289a8-ffe6-417a-bb51-70961be372d0}, ! Schedule Type Limits Name
  {e31c32a8-a316-4183-9d54-760da32223b4}, ! Default Day Schedule Name
  {e649becc-8774-4838-bc18-f7cc969aa250}, ! Summer Design Day Schedule Name
  {16f88bfe-73aa-4161-b691-358ff9ffaf15}; ! Winter Design Day Schedule Name

OS:Schedule:Day,
  {e31c32a8-a316-4183-9d54-760da32223b4}, ! Handle
  Office Infil Quarter On Default Schedule, ! Name
  {e17289a8-ffe6-417a-bb51-70961be372d0}, ! Schedule Type Limits Name
  ,                                       ! Interpolate to Timestep
  6,                                      !- Hour 1
  0,                                      !- Minute 1
  1,                                      !- Value Until Time 1
  22,                                     !- Hour 2
  0,                                      !- Minute 2
  0.25,                                   !- Value Until Time 2
  24,                                     !- Hour 3
  0,                                      !- Minute 3
  1;                                      !- Value Until Time 3

OS:Schedule:Day,
  {e649becc-8774-4838-bc18-f7cc969aa250}, ! Handle
  Office Infil Quarter On Summer Design Day, ! Name
  {e17289a8-ffe6-417a-bb51-70961be372d0}, ! Schedule Type Limits Name
  ,                                       ! Interpolate to Timestep
  6,                                      ! Hour 1
  0,                                      ! Minute 1
  1,                                      ! Value Until Time 1
  22,                                     ! Hour 2
  0,                                      ! Minute 2
  0.25,                                   ! Value Until Time 2
  24,                                     ! Hour 3
  0,                                      ! Minute 3
  1;                                      ! Value Until Time 3

OS:Schedule:Day,
  {16f88bfe-73aa-4161-b691-358ff9ffaf15}, ! Handle
  Office Infil Quarter On Winter Design Day, ! Name
  {e17289a8-ffe6-417a-bb51-70961be372d0}, ! Schedule Type Limits Name
  ,                                       ! Interpolate to Timestep
  6,                                      ! Hour 1
  0,                                      ! Minute 1
  1,                                      ! Value Until Time 1
  18,                                     ! Hour 2
  0,                                      ! Minute 2
  0.25,                                   ! Value Until Time 2
  24,                                     ! Hour 3
  0,                                      ! Minute 3
  1;                                      ! Value Until Time 3

OS:Schedule:Rule,
  {a47cafd5-5647-4e45-b653-5a9d9b66b3c7}, ! Handle
  Office Infil Quarter On Rule 1,         ! Name
  {21f098cb-583e-45ac-9506-03970f42f105}, ! Schedule Ruleset Name
  0,                                      ! Rule Order
  {8d86b9b2-f852-46cf-abe1-bee9887b6c91}, ! Day Schedule Name
  Yes,                                    ! Apply Sunday
  No,                                     ! Apply Monday
  No,                                     ! Apply Tuesday
  No,                                     ! Apply Wednesday
  No,                                     ! Apply Thursday
  No,                                     ! Apply Friday
  No,                                     ! Apply Saturday
  ,                                       ! Apply Holiday
  DateRange,                              ! Date Specification Type
  1,                                      ! Start Month
  1,                                      ! Start Day
  12,                                     ! End Month
  31;                                     ! End Day

OS:Schedule:Rule,
  {40656a5f-90c5-4c3a-8bd1-8a2f709f6cb3}, ! Handle
  Office Infil Quarter On Rule 2,         ! Name
  {21f098cb-583e-45ac-9506-03970f42f105}, ! Schedule Ruleset Name
  1,                                      ! Rule Order
  {9e3cab35-1bbd-4f59-a0c2-1dad7707f3fe}, ! Day Schedule Name
  No,                                     ! Apply Sunday
  No,                                     ! Apply Monday
  No,                                     ! Apply Tuesday
  No,                                     ! Apply Wednesday
  No,                                     ! Apply Thursday
  No,                                     ! Apply Friday
  Yes,                                    ! Apply Saturday
  ,                                       ! Apply Holiday
  DateRange,                              ! Date Specification Type
  1,                                      ! Start Month
  1,                                      ! Start Day
  12,                                     ! End Month
  31;                                     ! End Day

OS:Schedule:Day,
  {8d86b9b2-f852-46cf-abe1-bee9887b6c91}, ! Handle
  Office Infil Quarter On Rule 1 Day Schedule, ! Name
  {e17289a8-ffe6-417a-bb51-70961be372d0}, ! Schedule Type Limits Name
  ,                                       ! Interpolate to Timestep
  24,                                     ! Hour 1
  0,                                      ! Minute 1
  1;                                      ! Value Until Time 1

OS:Schedule:Day,
  {9e3cab35-1bbd-4f59-a0c2-1dad7707f3fe}, ! Handle
  Office Infil Quarter On Rule 2 Day Schedule, ! Name
  {e17289a8-ffe6-417a-bb51-70961be372d0}, ! Schedule Type Limits Name
  ,                                       ! Interpolate to Timestep
  6,                                      ! Hour 1
  0,                                      ! Minute 1
  1,                                      ! Value Until Time 1
  18,                                     ! Hour 2
  0,                                      ! Minute 2
  0.25,                                   ! Value Until Time 2
  24,                                     ! Hour 3
  0,                                      ! Minute 3
  1;                                      ! Value Until Time 3

OS:ScheduleTypeLimits,
  {e17289a8-ffe6-417a-bb51-70961be372d0}, ! Handle
  Fraction,                               ! Name