
OS:Version,
  {a3ade8a7-40f6-4874-8274-d2f909078c7b}, !- Handle
  1.9.0;                                  !- Version Identifier

OS:Facility,
  {f48e6959-85da-4c9c-b961-12501940ac50}; !- Handle

OS:Building,
  {3c528ecc-92d6-4be8-bf8c-3da71c879acc}, !- Handle
  Building 1,                             !- Name
  ,                                       !- Building Sector Type
  ,                                       !- North Axis {deg}
  ,                                       !- Nominal Floor to Floor Height {m}
  ,                                       !- Space Type Name
  ,                                       !- Default Construction Set Name
  ;                                       !- Default Schedule Set Name

OS:BuildingStory,
  {fabd32bd-ce57-4fa6-bb21-e5fb4bdd1bc8}, !- Handle
  Level 1,                                !- Name
  ,                                       !- Nominal Z Coordinate {m}
  ,                                       !- Nominal Floor to Floor Height {m}
  ,                                       !- Default Construction Set Name
  ,                                       !- Default Schedule Set Name
  ;                                       !- Group Rendering Name

OS:BuildingStory,
  {39be54a6-5186-4eb2-838a-c5ed7c4726a4}, !- Handle
  Level 2,                                !- Name
  ,                                       !- Nominal Z Coordinate {m}
  3.048,                                  !- Nominal Floor to Floor Height {m}
  ,                                       !- Default Construction Set Name
  ,                                       !- Default Schedule Set Name
  ;                                       !- Group Rendering Name

OS:BuildingStory,
  {b1ddf01b-aa40-4cef-aa27-bc4e33c79ed3}, !- Handle
  Roof Base,                              !- Name
  ,                                       !- Nominal Z Coordinate {m}
  6.096,                                  !- Nominal Floor to Floor Height {m}
  ,                                       !- Default Construction Set Name
  ,                                       !- Default Schedule Set Name
  ;                                       !- Group Rendering Name

OS:Space,
  {c5a85224-f862-4026-812b-22f1babb5d32}, !- Handle
  sp-1-Space,                             !- Name
  ,                                       !- Space Type Name
  ,                                       !- Default Construction Set Name
  ,                                       !- Default Schedule Set Name
  ,                                       !- Direction of Relative North {deg}
  ,                                       !- X Origin {m}
  ,                                       !- Y Origin {m}
  ,                                       !- Z Origin {m}
  {fabd32bd-ce57-4fa6-bb21-e5fb4bdd1bc8}, !- Building Story Name
  {1eb5363b-303f-4a2e-9c97-143d17aeb0cc}; !- Thermal Zone Name

OS:Surface,
  {05446d63-5310-41b3-81bb-36fa3bcec15c}, !- Handle
  Surface 1,                              !- Name
  Floor,                                  !- Surface Type
  ,                                       !- Construction Name
  {c5a85224-f862-4026-812b-22f1babb5d32}, !- Space Name
  Ground,                                 !- Outside Boundary Condition
  ,                                       !- Outside Boundary Condition Object
  NoSun,                                  !- Sun Exposure
  NoWind,                                 !- Wind Exposure
  ,                                       !- View Factor to Ground
  ,                                       !- Number of Vertices
  0, 0, 0,                                !- X,Y,Z Vertex 1 {m}
  0, 12.192, 0,                           !- X,Y,Z Vertex 2 {m}
  12.192, 12.192, 0,                      !- X,Y,Z Vertex 3 {m}
  12.192, 0, 0;                           !- X,Y,Z Vertex 4 {m}

OS:Surface,
  {162f5720-b049-4c44-9f73-820641c8275b}, !- Handle
  Surface 2,                              !- Name
  Wall,                                   !- Surface Type
  ,                                       !- Construction Name
  {c5a85224-f862-4026-812b-22f1babb5d32}, !- Space Name
  Outdoors,                               !- Outside Boundary Condition
  ,                                       !- Outside Boundary Condition Object
  SunExposed,                             !- Sun Exposure
  WindExposed,                            !- Wind Exposure
  ,                                       !- View Factor to Ground
  ,                                       !- Number of Vertices
  0, 0, 0,                                !- X,Y,Z Vertex 1 {m}
  0, 0, 3.048,                            !- X,Y,Z Vertex 2 {m}
  0, 12.192, 3.048,                       !- X,Y,Z Vertex 3 {m}
  0, 12.192, 0;                           !- X,Y,Z Vertex 4 {m}

OS:Surface,
  {5d595ab2-8ea8-42f9-996c-9d6623e7c12b}, !- Handle
  Surface 3,                              !- Name
  Wall,                                   !- Surface Type
  ,                                       !- Construction Name
  {c5a85224-f862-4026-812b-22f1babb5d32}, !- Space Name
  Outdoors,                               !- Outside Boundary Condition
  ,                                       !- Outside Boundary Condition Object
  SunExposed,                             !- Sun Exposure
  WindExposed,                            !- Wind Exposure
  ,                                       !- View Factor to Ground
  ,                                       !- Number of Vertices
  0, 0, 0,                                !- X,Y,Z Vertex 1 {m}
  12.192, 0, 0,                           !- X,Y,Z Vertex 2 {m}
  12.192, 0, 3.048,                       !- X,Y,Z Vertex 3 {m}
  0, 0, 3.048;                            !- X,Y,Z Vertex 4 {m}

OS:Surface,
  {e770811d-4bab-4a44-a4e0-3e26490f8dac}, !- Handle
  Surface 4,                              !- Name
  Wall,                                   !- Surface Type
  ,                                       !- Construction Name
  {c5a85224-f862-4026-812b-22f1babb5d32}, !- Space Name
  Outdoors,                               !- Outside Boundary Condition
  ,                                       !- Outside Boundary Condition Object
  SunExposed,                             !- Sun Exposure
  WindExposed,                            !- Wind Exposure
  ,                                       !- View Factor to Ground
  ,                                       !- Number of Vertices
  12.192, 0, 0,                           !- X,Y,Z Vertex 1 {m}
  12.192, 12.192, 0,                      !- X,Y,Z Vertex 2 {m}
  12.192, 12.192, 3.048,                  !- X,Y,Z Vertex 3 {m}
  12.192, 0, 3.048;                       !- X,Y,Z Vertex 4 {m}

OS:Surface,
  {85049f24-8f9e-4e79-9d04-c6510469d120}, !- Handle
  Surface 5,                              !- Name
  Wall,                                   !- Surface Type
  ,                                       !- Construction Name
  {c5a85224-f862-4026-812b-22f1babb5d32}, !- Space Name
  Outdoors,                               !- Outside Boundary Condition
  ,                                       !- Outside Boundary Condition Object
  SunExposed,                             !- Sun Exposure
  WindExposed,                            !- Wind Exposure
  ,                                       !- View Factor to Ground
  ,                                       !- Number of Vertices
  12.192, 12.192, 0,                      !- X,Y,Z Vertex 1 {m}
  0, 12.192, 0,                           !- X,Y,Z Vertex 2 {m}
  0, 12.192, 3.048,                       !- X,Y,Z Vertex 3 {m}
  12.192, 12.192, 3.048;                  !- X,Y,Z Vertex 4 {m}

OS:Surface,
  {1ffd93a9-1125-40fb-aafa-664a44c721c5}, !- Handle
  Surface 6,                              !- Name
  RoofCeiling,                            !- Surface Type
  ,                                       !- Construction Name
  {c5a85224-f862-4026-812b-22f1babb5d32}, !- Space Name
  Surface,                                !- Outside Boundary Condition
  {1f793025-40f4-4ce4-88d0-7d75b17e4574}, !- Outside Boundary Condition Object
  NoSun,                                  !- Sun Exposure
  NoWind,                                 !- Wind Exposure
  ,                                       !- View Factor to Ground
  ,                                       !- Number of Vertices
  0, 0, 3.048,                            !- X,Y,Z Vertex 1 {m}
  12.192, 0, 3.048,                       !- X,Y,Z Vertex 2 {m}
  12.192, 12.192, 3.048,                  !- X,Y,Z Vertex 3 {m}
  0, 12.192, 3.048;                       !- X,Y,Z Vertex 4 {m}

OS:Space,
  {4e58537c-e8a8-4d2d-91be-ef34df9095cd}, !- Handle
  sp-2-Space,                             !- Name
  ,                                       !- Space Type Name
  ,                                       !- Default Construction Set Name
  ,                                       !- Default Schedule Set Name
  ,                                       !- Direction of Relative North {deg}
  ,                                       !- X Origin {m}
  ,                                       !- Y Origin {m}
  ,                                       !- Z Origin {m}
  {39be54a6-5186-4eb2-838a-c5ed7c4726a4}, !- Building Story Name
  {d9b4d5d6-2541-4291-9f3b-338c6ca669c8}; !- Thermal Zone Name

OS:Surface,
  {1f793025-40f4-4ce4-88d0-7d75b17e4574}, !- Handle
  Surface 7,                              !- Name
  Floor,                                  !- Surface Type
  ,                                       !- Construction Name
  {4e58537c-e8a8-4d2d-91be-ef34df9095cd}, !- Space Name
  Surface,                                !- Outside Boundary Condition
  {1ffd93a9-1125-40fb-aafa-664a44c721c5}, !- Outside Boundary Condition Object
  NoSun,                                  !- Sun Exposure
  NoWind,                                 !- Wind Exposure
  ,                                       !- View Factor to Ground
  ,                                       !- Number of Vertices
  0, 0, 3.048,                            !- X,Y,Z Vertex 1 {m}
  0, 12.192, 3.048,                       !- X,Y,Z Vertex 2 {m}
  12.192, 12.192, 3.048,                  !- X,Y,Z Vertex 3 {m}
  12.192, 0, 3.048;                       !- X,Y,Z Vertex 4 {m}

OS:Surface,
  {101981fd-be9e-49ba-9452-dd70244b0ff3}, !- Handle
  Surface 8,                              !- Name
  Wall,                                   !- Surface Type
  ,                                       !- Construction Name
  {4e58537c-e8a8-4d2d-91be-ef34df9095cd}, !- Space Name
  Outdoors,                               !- Outside Boundary Condition
  ,                                       !- Outside Boundary Condition Object
  SunExposed,                             !- Sun Exposure
  WindExposed,                            !- Wind Exposure
  ,                                       !- View Factor to Ground
  ,                                       !- Number of Vertices
  0, 0, 3.048,                            !- X,Y,Z Vertex 1 {m}
  0, 0, 6.096,                            !- X,Y,Z Vertex 2 {m}
  0, 12.192, 6.096,                       !- X,Y,Z Vertex 3 {m}
  0, 12.192, 3.048;                       !- X,Y,Z Vertex 4 {m}

OS:Surface,
  {20c9fcf3-115f-4e9b-9c95-d5765f9e0f1e}, !- Handle
  Surface 9,                              !- Name
  Wall,                                   !- Surface Type
  ,                                       !- Construction Name
  {4e58537c-e8a8-4d2d-91be-ef34df9095cd}, !- Space Name
  Outdoors,                               !- Outside Boundary Condition
  ,                                       !- Outside Boundary Condition Object
  SunExposed,                             !- Sun Exposure
  WindExposed,                            !- Wind Exposure
  ,                                       !- View Factor to Ground
  ,                                       !- Number of Vertices
  0, 0, 3.048,                            !- X,Y,Z Vertex 1 {m}
  12.192, 0, 3.048,                       !- X,Y,Z Vertex 2 {m}
  12.192, 0, 6.096,                       !- X,Y,Z Vertex 3 {m}
  0, 0, 6.096;                            !- X,Y,Z Vertex 4 {m}

OS:Surface,
  {5d5ddd31-5da7-445c-8ca7-a6735a1e7195}, !- Handle
  Surface 10,                             !- Name
  Wall,                                   !- Surface Type
  ,                                       !- Construction Name
  {4e58537c-e8a8-4d2d-91be-ef34df9095cd}, !- Space Name
  Outdoors,                               !- Outside Boundary Condition
  ,                                       !- Outside Boundary Condition Object
  SunExposed,                             !- Sun Exposure
  WindExposed,                            !- Wind Exposure
  ,                                       !- View Factor to Ground
  ,                                       !- Number of Vertices
  12.192, 0, 3.048,                       !- X,Y,Z Vertex 1 {m}
  12.192, 12.192, 3.048,                  !- X,Y,Z Vertex 2 {m}
  12.192, 12.192, 6.096,                  !- X,Y,Z Vertex 3 {m}
  12.192, 0, 6.096;                       !- X,Y,Z Vertex 4 {m}

OS:Surface,
  {d1b11f90-2fce-497f-a76f-50d1d2987eb7}, !- Handle
  Surface 11,                             !- Name
  Wall,                                   !- Surface Type
  ,                                       !- Construction Name
  {4e58537c-e8a8-4d2d-91be-ef34df9095cd}, !- Space Name
  Outdoors,                               !- Outside Boundary Condition
  ,                                       !- Outside Boundary Condition Object
  SunExposed,                             !- Sun Exposure
  WindExposed,                            !- Wind Exposure
  ,                                       !- View Factor to Ground
  ,                                       !- Number of Vertices
  12.192, 12.192, 3.048,                  !- X,Y,Z Vertex 1 {m}
  0, 12.192, 3.048,                       !- X,Y,Z Vertex 2 {m}
  0, 12.192, 6.096,                       !- X,Y,Z Vertex 3 {m}
  12.192, 12.192, 6.096;                  !- X,Y,Z Vertex 4 {m}

OS:Surface,
  {2f379342-856a-4f88-88fa-ce01096522c1}, !- Handle
  Surface 12,                             !- Name
  RoofCeiling,                            !- Surface Type
  ,                                       !- Construction Name
  {4e58537c-e8a8-4d2d-91be-ef34df9095cd}, !- Space Name
  Outdoors,                               !- Outside Boundary Condition
  ,                                       !- Outside Boundary Condition Object
  SunExposed,                             !- Sun Exposure
  WindExposed,                            !- Wind Exposure
  ,                                       !- View Factor to Ground
  ,                                       !- Number of Vertices
  0, 0, 6.096,                            !- X,Y,Z Vertex 1 {m}
  6.096, 6.096, 11.03028528,              !- X,Y,Z Vertex 2 {m}
  0, 12.192, 6.096;                       !- X,Y,Z Vertex 3 {m}

OS:Surface,
  {db11d36b-dfd1-457b-8213-895d9f53b8d1}, !- Handle
  Surface 13,                             !- Name
  RoofCeiling,                            !- Surface Type
  ,                                       !- Construction Name
  {4e58537c-e8a8-4d2d-91be-ef34df9095cd}, !- Space Name
  Outdoors,                               !- Outside Boundary Condition
  ,                                       !- Outside Boundary Condition Object
  SunExposed,                             !- Sun Exposure
  WindExposed,                            !- Wind Exposure
  ,                                       !- View Factor to Ground
  ,                                       !- Number of Vertices
  12.192, 12.192, 6.096,                  !- X,Y,Z Vertex 1 {m}
  0, 12.192, 6.096,                       !- X,Y,Z Vertex 2 {m}
  6.096, 6.096, 11.03028528;              !- X,Y,Z Vertex 3 {m}

OS:Surface,
  {bb05f3b0-e53c-4ce3-93f1-705b88ead9a6}, !- Handle
  Surface 14,                             !- Name
  RoofCeiling,                            !- Surface Type
  ,                                       !- Construction Name
  {4e58537c-e8a8-4d2d-91be-ef34df9095cd}, !- Space Name
  Outdoors,                               !- Outside Boundary Condition
  ,                                       !- Outside Boundary Condition Object
  SunExposed,                             !- Sun Exposure
  WindExposed,                            !- Wind Exposure
  ,                                       !- View Factor to Ground
  ,                                       !- Number of Vertices
  12.192, 0, 6.096,                       !- X,Y,Z Vertex 1 {m}
  12.192, 12.192, 6.096,                  !- X,Y,Z Vertex 2 {m}
  6.096, 6.096, 11.03028528;              !- X,Y,Z Vertex 3 {m}

OS:Surface,
  {3636f94b-4b04-415d-a0d7-2871fa2865e0}, !- Handle
  Surface 15,                             !- Name
  Wall,                                   !- Surface Type
  ,                                       !- Construction Name
  {4e58537c-e8a8-4d2d-91be-ef34df9095cd}, !- Space Name
  Outdoors,                               !- Outside Boundary Condition
  ,                                       !- Outside Boundary Condition Object
  SunExposed,                             !- Sun Exposure
  WindExposed,                            !- Wind Exposure
  ,                                       !- View Factor to Ground
  ,                                       !- Number of Vertices
  7.63795272, 0, 6.096,                   !- X,Y,Z Vertex 1 {m}
  6.096, 4.111752, 9.179914584,           !- X,Y,Z Vertex 2 {m}
  6.096, 0, 9.179914584;                  !- X,Y,Z Vertex 3 {m}

OS:Surface,
  {e9738211-8398-4a9a-81bb-cca2c22a4f9d}, !- Handle
  Surface 16,                             !- Name
  Wall,                                   !- Surface Type
  ,                                       !- Construction Name
  {4e58537c-e8a8-4d2d-91be-ef34df9095cd}, !- Space Name
  Outdoors,                               !- Outside Boundary Condition
  ,                                       !- Outside Boundary Condition Object
  SunExposed,                             !- Sun Exposure
  WindExposed,                            !- Wind Exposure
  ,                                       !- View Factor to Ground
  ,                                       !- Number of Vertices
  4.554042708, 0, 6.096,                  !- X,Y,Z Vertex 1 {m}
  6.096, 0, 9.179914584,                  !- X,Y,Z Vertex 2 {m}
  6.096, 4.111752, 9.179914584;           !- X,Y,Z Vertex 3 {m}

OS:Surface,
  {c054dc8d-d093-47f5-abaa-3ff2fcdf00d8}, !- Handle
  Surface 17,                             !- Name
  RoofCeiling,                            !- Surface Type
  ,                                       !- Construction Name
  {4e58537c-e8a8-4d2d-91be-ef34df9095cd}, !- Space Name
  Outdoors,                               !- Outside Boundary Condition
  ,                                       !- Outside Boundary Condition Object
  SunExposed,                             !- Sun Exposure
  WindExposed,                            !- Wind Exposure
  ,                                       !- View Factor to Ground
  ,                                       !- Number of Vertices
  4.554042708, 0, 6.096,                  !- X,Y,Z Vertex 1 {m}
  6.096, 4.111752, 9.179914584,           !- X,Y,Z Vertex 2 {m}
  7.63795272, 0, 6.096,                   !- X,Y,Z Vertex 3 {m}
  12.192, 0, 6.096,                       !- X,Y,Z Vertex 4 {m}
  6.096, 6.096, 11.03028528,              !- X,Y,Z Vertex 5 {m}
  0, 0, 6.096;                            !- X,Y,Z Vertex 6 {m}

OS:Surface,
  {c4898985-e3c7-4ea4-a81e-6013d483e10f}, !- Handle
  Surface 18,                             !- Name
  Wall,                                   !- Surface Type
  ,                                       !- Construction Name
  {4e58537c-e8a8-4d2d-91be-ef34df9095cd}, !- Space Name
  Outdoors,                               !- Outside Boundary Condition
  ,                                       !- Outside Boundary Condition Object
  SunExposed,                             !- Sun Exposure
  WindExposed,                            !- Wind Exposure
  ,                                       !- View Factor to Ground
  ,                                       !- Number of Vertices
  4.554042708, 0, 6.096,                  !- X,Y,Z Vertex 1 {m}
  7.63795272, 0, 6.096,                   !- X,Y,Z Vertex 2 {m}
  6.096, 0, 9.179914584;                  !- X,Y,Z Vertex 3 {m}

OS:ThermalZone,
  {d9b4d5d6-2541-4291-9f3b-338c6ca669c8}, !- Handle
  sp-2-Zone,                              !- Name
  ,                                       !- Multiplier
  ,                                       !- Ceiling Height {m}
  ,                                       !- Volume {m3}
  ,                                       !- Floor Area {m2}
  ,                                       !- Zone Inside Convection Algorithm
  ,                                       !- Zone Outside Convection Algorithm
  ,                                       !- Zone Conditioning Equipment List Name
  {720d01c4-fb95-43df-a2fe-db216d52bf95}, !- Zone Air Inlet Port List
  {98abd439-49ef-40d8-a30d-bbb94aa6ca84}, !- Zone Air Exhaust Port List
  {4d0ceda1-4dda-4686-b66e-92527f1727a2}, !- Zone Air Node Name
  ,                                       !- Zone Return Air Node Name
  ,                                       !- Primary Daylighting Control Name
  ,                                       !- Fraction of Zone Controlled by Primary Daylighting Control
  ,                                       !- Secondary Daylighting Control Name
  ,                                       !- Fraction of Zone Controlled by Secondary Daylighting Control
  ,                                       !- Illuminance Map Name
  ,                                       !- Group Rendering Name
  ,                                       !- Thermostat Name
  No;                                     !- Use Ideal Air Loads

OS:Node,
  {affde3ad-7421-438c-82ed-e1c603323384}, !- Handle
  Node 1,                                 !- Name
  {4d0ceda1-4dda-4686-b66e-92527f1727a2}, !- Inlet Port
  ;                                       !- Outlet Port

OS:Connection,
  {4d0ceda1-4dda-4686-b66e-92527f1727a2}, !- Handle
  {699ef783-d726-4a8e-b851-2b6a6b769524}, !- Name
  {d9b4d5d6-2541-4291-9f3b-338c6ca669c8}, !- Source Object
  11,                                     !- Outlet Port
  {affde3ad-7421-438c-82ed-e1c603323384}, !- Target Object
  2;                                      !- Inlet Port

OS:PortList,
  {720d01c4-fb95-43df-a2fe-db216d52bf95}, !- Handle
  Port List 1,                            !- Name
  {d9b4d5d6-2541-4291-9f3b-338c6ca669c8}; !- HVAC Component

OS:PortList,
  {98abd439-49ef-40d8-a30d-bbb94aa6ca84}, !- Handle
  Port List 2,                            !- Name
  {d9b4d5d6-2541-4291-9f3b-338c6ca669c8}; !- HVAC Component

OS:Sizing:Zone,
  {d5ecc459-832c-4180-b66a-3da4e8b0c143}, !- Handle
  {d9b4d5d6-2541-4291-9f3b-338c6ca669c8}, !- Zone or ZoneList Name
  14,                                     !- Zone Cooling Design Supply Air Temperature {C}
  40,                                     !- Zone Heating Design Supply Air Temperature {C}
  0.0085,                                 !- Zone Cooling Design Supply Air Humidity Ratio {kg-H2O/kg-air}
  0.008,                                  !- Zone Heating Design Supply Air Humidity Ratio {kg-H2O/kg-air}
  ,                                       !- Zone Heating Sizing Factor
  ,                                       !- Zone Cooling Sizing Factor
  DesignDay,                              !- Cooling Design Air Flow Method
  ,                                       !- Cooling Design Air Flow Rate {m3/s}
  ,                                       !- Cooling Minimum Air Flow per Zone Floor Area {m3/s-m2}
  ,                                       !- Cooling Minimum Air Flow {m3/s}
  ,                                       !- Cooling Minimum Air Flow Fraction
  DesignDay,                              !- Heating Design Air Flow Method
  ,                                       !- Heating Design Air Flow Rate {m3/s}
  ,                                       !- Heating Maximum Air Flow per Zone Floor Area {m3/s-m2}
  ,                                       !- Heating Maximum Air Flow {m3/s}
  ,                                       !- Heating Maximum Air Flow Fraction
  ,                                       !- Design Zone Air Distribution Effectiveness in Cooling Mode
  ;                                       !- Design Zone Air Distribution Effectiveness in Heating Mode

OS:ZoneHVAC:EquipmentList,
  {c10fbb5b-58f2-4960-9a10-838cfb27501c}, !- Handle
  Zone HVAC Equipment List 1,             !- Name
  {d9b4d5d6-2541-4291-9f3b-338c6ca669c8}; !- Thermal Zone

OS:ThermalZone,
  {1eb5363b-303f-4a2e-9c97-143d17aeb0cc}, !- Handle
  sp-1-Zone,                              !- Name
  ,                                       !- Multiplier
  ,                                       !- Ceiling Height {m}
  ,                                       !- Volume {m3}
  ,                                       !- Floor Area {m2}
  ,                                       !- Zone Inside Convection Algorithm
  ,                                       !- Zone Outside Convection Algorithm
  ,                                       !- Zone Conditioning Equipment List Name
  {0e245997-d5e9-447f-a6d3-cdc1a9b7644f}, !- Zone Air Inlet Port List
  {adfdb3ab-d898-4b40-a374-67af7a479194}, !- Zone Air Exhaust Port List
  {6cdd101e-b56b-42dd-9545-245912b3e622}, !- Zone Air Node Name
  ,                                       !- Zone Return Air Node Name
  ,                                       !- Primary Daylighting Control Name
  ,                                       !- Fraction of Zone Controlled by Primary Daylighting Control
  ,                                       !- Secondary Daylighting Control Name
  ,                                       !- Fraction of Zone Controlled by Secondary Daylighting Control
  ,                                       !- Illuminance Map Name
  ,                                       !- Group Rendering Name
  ,                                       !- Thermostat Name
  No;                                     !- Use Ideal Air Loads

OS:Node,
  {d68b04ad-3082-4537-8a71-0d126cdc803e}, !- Handle
  Node 2,                                 !- Name
  {6cdd101e-b56b-42dd-9545-245912b3e622}, !- Inlet Port
  ;                                       !- Outlet Port

OS:Connection,
  {6cdd101e-b56b-42dd-9545-245912b3e622}, !- Handle
  {6739aefb-21e5-4dd0-b224-0e61c6556edd}, !- Name
  {1eb5363b-303f-4a2e-9c97-143d17aeb0cc}, !- Source Object
  11,                                     !- Outlet Port
  {d68b04ad-3082-4537-8a71-0d126cdc803e}, !- Target Object
  2;                                      !- Inlet Port

OS:PortList,
  {0e245997-d5e9-447f-a6d3-cdc1a9b7644f}, !- Handle
  Port List 3,                            !- Name
  {1eb5363b-303f-4a2e-9c97-143d17aeb0cc}; !- HVAC Component

OS:PortList,
  {adfdb3ab-d898-4b40-a374-67af7a479194}, !- Handle
  Port List 4,                            !- Name
  {1eb5363b-303f-4a2e-9c97-143d17aeb0cc}; !- HVAC Component

OS:Sizing:Zone,
  {78311c17-5d2c-424a-a99e-615bc0139b55}, !- Handle
  {1eb5363b-303f-4a2e-9c97-143d17aeb0cc}, !- Zone or ZoneList Name
  14,                                     !- Zone Cooling Design Supply Air Temperature {C}
  40,                                     !- Zone Heating Design Supply Air Temperature {C}
  0.0085,                                 !- Zone Cooling Design Supply Air Humidity Ratio {kg-H2O/kg-air}
  0.008,                                  !- Zone Heating Design Supply Air Humidity Ratio {kg-H2O/kg-air}
  ,                                       !- Zone Heating Sizing Factor
  ,                                       !- Zone Cooling Sizing Factor
  DesignDay,                              !- Cooling Design Air Flow Method
  ,                                       !- Cooling Design Air Flow Rate {m3/s}
  ,                                       !- Cooling Minimum Air Flow per Zone Floor Area {m3/s-m2}
  ,                                       !- Cooling Minimum Air Flow {m3/s}
  ,                                       !- Cooling Minimum Air Flow Fraction
  DesignDay,                              !- Heating Design Air Flow Method
  ,                                       !- Heating Design Air Flow Rate {m3/s}
  ,                                       !- Heating Maximum Air Flow per Zone Floor Area {m3/s-m2}
  ,                                       !- Heating Maximum Air Flow {m3/s}
  ,                                       !- Heating Maximum Air Flow Fraction
  ,                                       !- Design Zone Air Distribution Effectiveness in Cooling Mode
  ;                                       !- Design Zone Air Distribution Effectiveness in Heating Mode

OS:ZoneHVAC:EquipmentList,
  {9f580d9b-a02e-4cd5-a93e-f48c068315ef}, !- Handle
  Zone HVAC Equipment List 2,             !- Name
  {1eb5363b-303f-4a2e-9c97-143d17aeb0cc}; !- Thermal Zone

