
OS:Version,
  {8783b508-c01b-4f00-8fb6-abc411561b7c}, !- Handle
  1.9.0;                                  !- Version Identifier

OS:Facility,
  {13001147-663c-4ff2-be98-bcacdd61b39f}; !- Handle

OS:Building,
  {239b4521-30d9-46db-abb9-8f3c40cfde46}, !- Handle
  Building 1,                             !- Name
  ,                                       !- Building Sector Type
  ,                                       !- North Axis {deg}
  ,                                       !- Nominal Floor to Floor Height {m}
  ,                                       !- Space Type Name
  ,                                       !- Default Construction Set Name
  ;                                       !- Default Schedule Set Name

OS:BuildingStory,
  {b6d21cb7-ea15-4ab7-8175-6f7669c4fd71}, !- Handle
  Level 1,                                !- Name
  ,                                       !- Nominal Z Coordinate {m}
  ,                                       !- Nominal Floor to Floor Height {m}
  ,                                       !- Default Construction Set Name
  ,                                       !- Default Schedule Set Name
  ;                                       !- Group Rendering Name

OS:BuildingStory,
  {7b16b402-7bf2-42e3-a321-13120028acf1}, !- Handle
  Level 2,                                !- Name
  ,                                       !- Nominal Z Coordinate {m}
  3.048,                                  !- Nominal Floor to Floor Height {m}
  ,                                       !- Default Construction Set Name
  ,                                       !- Default Schedule Set Name
  ;                                       !- Group Rendering Name

OS:BuildingStory,
  {c88c3e7e-ae6c-46b0-95dd-da9732646898}, !- Handle
  Roof Base,                              !- Name
  ,                                       !- Nominal Z Coordinate {m}
  6.096,                                  !- Nominal Floor to Floor Height {m}
  ,                                       !- Default Construction Set Name
  ,                                       !- Default Schedule Set Name
  ;                                       !- Group Rendering Name

OS:Space,
  {a3241325-b89a-4f09-aea9-468c2be8208f}, !- Handle
  sp-1-Space,                             !- Name
  ,                                       !- Space Type Name
  ,                                       !- Default Construction Set Name
  ,                                       !- Default Schedule Set Name
  ,                                       !- Direction of Relative North {deg}
  ,                                       !- X Origin {m}
  ,                                       !- Y Origin {m}
  ,                                       !- Z Origin {m}
  {b6d21cb7-ea15-4ab7-8175-6f7669c4fd71}, !- Building Story Name
  {2d6efca4-9c55-4fc6-8276-f196bb700cc3}; !- Thermal Zone Name

OS:Surface,
  {03be0e73-049f-465d-b64e-712c7d37cf0c}, !- Handle
  Surface 1,                              !- Name
  Floor,                                  !- Surface Type
  ,                                       !- Construction Name
  {a3241325-b89a-4f09-aea9-468c2be8208f}, !- Space Name
  Ground,                                 !- Outside Boundary Condition
  ,                                       !- Outside Boundary Condition Object
  NoSun,                                  !- Sun Exposure
  NoWind,                                 !- Wind Exposure
  ,                                       !- View Factor to Ground
  ,                                       !- Number of Vertices
  0, 0, 0,                                !- X,Y,Z Vertex 1 {m}
  0, 12.192, 0,                           !- X,Y,Z Vertex 2 {m}
  12.192, 12.192, 0,                      !- X,Y,Z Vertex 3 {m}
  12.192, 0, 0;                           !- X,Y,Z Vertex 4 {m}

OS:Surface,
  {5ea7c673-74f5-49ec-b38f-dd34d4a2d84a}, !- Handle
  Surface 2,                              !- Name
  Wall,                                   !- Surface Type
  ,                                       !- Construction Name
  {a3241325-b89a-4f09-aea9-468c2be8208f}, !- Space Name
  Outdoors,                               !- Outside Boundary Condition
  ,                                       !- Outside Boundary Condition Object
  SunExposed,                             !- Sun Exposure
  WindExposed,                            !- Wind Exposure
  ,                                       !- View Factor to Ground
  ,                                       !- Number of Vertices
  0, 0, 0,                                !- X,Y,Z Vertex 1 {m}
  0, 0, 3.048,                            !- X,Y,Z Vertex 2 {m}
  0, 12.192, 3.048,                       !- X,Y,Z Vertex 3 {m}
  0, 12.192, 0;                           !- X,Y,Z Vertex 4 {m}

OS:Surface,
  {9e7554b9-2cfb-4719-915b-646d29b1f71b}, !- Handle
  Surface 3,                              !- Name
  Wall,                                   !- Surface Type
  ,                                       !- Construction Name
  {a3241325-b89a-4f09-aea9-468c2be8208f}, !- Space Name
  Outdoors,                               !- Outside Boundary Condition
  ,                                       !- Outside Boundary Condition Object
  SunExposed,                             !- Sun Exposure
  WindExposed,                            !- Wind Exposure
  ,                                       !- View Factor to Ground
  ,                                       !- Number of Vertices
  0, 0, 0,                                !- X,Y,Z Vertex 1 {m}
  12.192, 0, 0,                           !- X,Y,Z Vertex 2 {m}
  12.192, 0, 3.048,                       !- X,Y,Z Vertex 3 {m}
  0, 0, 3.048;                            !- X,Y,Z Vertex 4 {m}

OS:Surface,
  {58157e4f-935e-4f69-8c16-a8ec9ea94d90}, !- Handle
  Surface 4,                              !- Name
  Wall,                                   !- Surface Type
  ,                                       !- Construction Name
  {a3241325-b89a-4f09-aea9-468c2be8208f}, !- Space Name
  Outdoors,                               !- Outside Boundary Condition
  ,                                       !- Outside Boundary Condition Object
  SunExposed,                             !- Sun Exposure
  WindExposed,                            !- Wind Exposure
  ,                                       !- View Factor to Ground
  ,                                       !- Number of Vertices
  12.192, 0, 0,                           !- X,Y,Z Vertex 1 {m}
  12.192, 12.192, 0,                      !- X,Y,Z Vertex 2 {m}
  12.192, 12.192, 3.048,                  !- X,Y,Z Vertex 3 {m}
  12.192, 0, 3.048;                       !- X,Y,Z Vertex 4 {m}

OS:Surface,
  {b63243e2-d25f-41f8-a756-db1eed99b149}, !- Handle
  Surface 5,                              !- Name
  Wall,                                   !- Surface Type
  ,                                       !- Construction Name
  {a3241325-b89a-4f09-aea9-468c2be8208f}, !- Space Name
  Outdoors,                               !- Outside Boundary Condition
  ,                                       !- Outside Boundary Condition Object
  SunExposed,                             !- Sun Exposure
  WindExposed,                            !- Wind Exposure
  ,                                       !- View Factor to Ground
  ,                                       !- Number of Vertices
  12.192, 12.192, 0,                      !- X,Y,Z Vertex 1 {m}
  0, 12.192, 0,                           !- X,Y,Z Vertex 2 {m}
  0, 12.192, 3.048,                       !- X,Y,Z Vertex 3 {m}
  12.192, 12.192, 3.048;                  !- X,Y,Z Vertex 4 {m}

OS:Surface,
  {e659ace4-81b9-4fe6-b6f6-ddd1d1341a34}, !- Handle
  Surface 6,                              !- Name
  RoofCeiling,                            !- Surface Type
  ,                                       !- Construction Name
  {a3241325-b89a-4f09-aea9-468c2be8208f}, !- Space Name
  Surface,                                !- Outside Boundary Condition
  {8693ff71-0761-49c5-860a-ac87e7d6b2f8}, !- Outside Boundary Condition Object
  NoSun,                                  !- Sun Exposure
  NoWind,                                 !- Wind Exposure
  ,                                       !- View Factor to Ground
  ,                                       !- Number of Vertices
  0, 0, 3.048,                            !- X,Y,Z Vertex 1 {m}
  12.192, 0, 3.048,                       !- X,Y,Z Vertex 2 {m}
  12.192, 12.192, 3.048,                  !- X,Y,Z Vertex 3 {m}
  0, 12.192, 3.048;                       !- X,Y,Z Vertex 4 {m}

OS:Space,
  {8e3e5e66-4389-494a-843f-cb10c2f565a8}, !- Handle
  sp-2-Space,                             !- Name
  ,                                       !- Space Type Name
  ,                                       !- Default Construction Set Name
  ,                                       !- Default Schedule Set Name
  ,                                       !- Direction of Relative North {deg}
  ,                                       !- X Origin {m}
  ,                                       !- Y Origin {m}
  ,                                       !- Z Origin {m}
  {7b16b402-7bf2-42e3-a321-13120028acf1}, !- Building Story Name
  {526c9508-fefd-4a2c-84ee-9f92bf2472e0}; !- Thermal Zone Name

OS:Surface,
  {8693ff71-0761-49c5-860a-ac87e7d6b2f8}, !- Handle
  Surface 7,                              !- Name
  Floor,                                  !- Surface Type
  ,                                       !- Construction Name
  {8e3e5e66-4389-494a-843f-cb10c2f565a8}, !- Space Name
  Surface,                                !- Outside Boundary Condition
  {e659ace4-81b9-4fe6-b6f6-ddd1d1341a34}, !- Outside Boundary Condition Object
  NoSun,                                  !- Sun Exposure
  NoWind,                                 !- Wind Exposure
  ,                                       !- View Factor to Ground
  ,                                       !- Number of Vertices
  0, 0, 3.048,                            !- X,Y,Z Vertex 1 {m}
  0, 12.192, 3.048,                       !- X,Y,Z Vertex 2 {m}
  12.192, 12.192, 3.048,                  !- X,Y,Z Vertex 3 {m}
  12.192, 0, 3.048;                       !- X,Y,Z Vertex 4 {m}

OS:Surface,
  {ba239ad3-05e3-47b2-bf12-0d21debc331d}, !- Handle
  Surface 8,                              !- Name
  Wall,                                   !- Surface Type
  ,                                       !- Construction Name
  {8e3e5e66-4389-494a-843f-cb10c2f565a8}, !- Space Name
  Outdoors,                               !- Outside Boundary Condition
  ,                                       !- Outside Boundary Condition Object
  SunExposed,                             !- Sun Exposure
  WindExposed,                            !- Wind Exposure
  ,                                       !- View Factor to Ground
  ,                                       !- Number of Vertices
  0, 0, 3.048,                            !- X,Y,Z Vertex 1 {m}
  0, 0, 6.096,                            !- X,Y,Z Vertex 2 {m}
  0, 12.192, 6.096,                       !- X,Y,Z Vertex 3 {m}
  0, 12.192, 3.048;                       !- X,Y,Z Vertex 4 {m}

OS:Surface,
  {e143c24b-3a93-4bf9-b3b4-e676844fb7b3}, !- Handle
  Surface 9,                              !- Name
  Wall,                                   !- Surface Type
  ,                                       !- Construction Name
  {8e3e5e66-4389-494a-843f-cb10c2f565a8}, !- Space Name
  Outdoors,                               !- Outside Boundary Condition
  ,                                       !- Outside Boundary Condition Object
  SunExposed,                             !- Sun Exposure
  WindExposed,                            !- Wind Exposure
  ,                                       !- View Factor to Ground
  ,                                       !- Number of Vertices
  0, 0, 3.048,                            !- X,Y,Z Vertex 1 {m}
  12.192, 0, 3.048,                       !- X,Y,Z Vertex 2 {m}
  12.192, 0, 6.096,                       !- X,Y,Z Vertex 3 {m}
  0, 0, 6.096;                            !- X,Y,Z Vertex 4 {m}

OS:Surface,
  {14c922e8-3367-400f-921c-3f5f2b5c37f2}, !- Handle
  Surface 10,                             !- Name
  Wall,                                   !- Surface Type
  ,                                       !- Construction Name
  {8e3e5e66-4389-494a-843f-cb10c2f565a8}, !- Space Name
  Outdoors,                               !- Outside Boundary Condition
  ,                                       !- Outside Boundary Condition Object
  SunExposed,                             !- Sun Exposure
  WindExposed,                            !- Wind Exposure
  ,                                       !- View Factor to Ground
  ,                                       !- Number of Vertices
  12.192, 0, 3.048,                       !- X,Y,Z Vertex 1 {m}
  12.192, 12.192, 3.048,                  !- X,Y,Z Vertex 2 {m}
  12.192, 12.192, 6.096,                  !- X,Y,Z Vertex 3 {m}
  12.192, 0, 6.096;                       !- X,Y,Z Vertex 4 {m}

OS:Surface,
  {03bc6e0c-606e-47ad-9a52-d446308bb2b2}, !- Handle
  Surface 11,                             !- Name
  Wall,                                   !- Surface Type
  ,                                       !- Construction Name
  {8e3e5e66-4389-494a-843f-cb10c2f565a8}, !- Space Name
  Outdoors,                               !- Outside Boundary Condition
  ,                                       !- Outside Boundary Condition Object
  SunExposed,                             !- Sun Exposure
  WindExposed,                            !- Wind Exposure
  ,                                       !- View Factor to Ground
  ,                                       !- Number of Vertices
  12.192, 12.192, 3.048,                  !- X,Y,Z Vertex 1 {m}
  0, 12.192, 3.048,                       !- X,Y,Z Vertex 2 {m}
  0, 12.192, 6.096,                       !- X,Y,Z Vertex 3 {m}
  12.192, 12.192, 6.096;                  !- X,Y,Z Vertex 4 {m}

OS:Surface,
  {8b7808b1-e001-40dc-80bf-edd50e8ce7a9}, !- Handle
  Surface 12,                             !- Name
  RoofCeiling,                            !- Surface Type
  ,                                       !- Construction Name
  {8e3e5e66-4389-494a-843f-cb10c2f565a8}, !- Space Name
  Outdoors,                               !- Outside Boundary Condition
  ,                                       !- Outside Boundary Condition Object
  SunExposed,                             !- Sun Exposure
  WindExposed,                            !- Wind Exposure
  ,                                       !- View Factor to Ground
  ,                                       !- Number of Vertices
  0, 0, 6.096,                            !- X,Y,Z Vertex 1 {m}
  6.096, 6.096, 11.03028528,              !- X,Y,Z Vertex 2 {m}
  0, 12.192, 6.096;                       !- X,Y,Z Vertex 3 {m}

OS:Surface,
  {86f4643c-ac58-4ef0-8540-5589e755a8e4}, !- Handle
  Surface 13,                             !- Name
  RoofCeiling,                            !- Surface Type
  ,                                       !- Construction Name
  {8e3e5e66-4389-494a-843f-cb10c2f565a8}, !- Space Name
  Outdoors,                               !- Outside Boundary Condition
  ,                                       !- Outside Boundary Condition Object
  SunExposed,                             !- Sun Exposure
  WindExposed,                            !- Wind Exposure
  ,                                       !- View Factor to Ground
  ,                                       !- Number of Vertices
  12.192, 12.192, 6.096,                  !- X,Y,Z Vertex 1 {m}
  0, 12.192, 6.096,                       !- X,Y,Z Vertex 2 {m}
  6.096, 6.096, 11.03028528;              !- X,Y,Z Vertex 3 {m}

OS:Surface,
  {29007cb1-be83-4e90-ab6a-cdcc5bb0dba4}, !- Handle
  Surface 14,                             !- Name
  RoofCeiling,                            !- Surface Type
  ,                                       !- Construction Name
  {8e3e5e66-4389-494a-843f-cb10c2f565a8}, !- Space Name
  Outdoors,                               !- Outside Boundary Condition
  ,                                       !- Outside Boundary Condition Object
  SunExposed,                             !- Sun Exposure
  WindExposed,                            !- Wind Exposure
  ,                                       !- View Factor to Ground
  ,                                       !- Number of Vertices
  12.192, 0, 6.096,                       !- X,Y,Z Vertex 1 {m}
  12.192, 12.192, 6.096,                  !- X,Y,Z Vertex 2 {m}
  6.096, 6.096, 11.03028528;              !- X,Y,Z Vertex 3 {m}

OS:Surface,
  {3217e91a-33b9-4acb-8a67-93684943e5cc}, !- Handle
  Surface 15,                             !- Name
  Wall,                                   !- Surface Type
  ,                                       !- Construction Name
  {8e3e5e66-4389-494a-843f-cb10c2f565a8}, !- Space Name
  Outdoors,                               !- Outside Boundary Condition
  ,                                       !- Outside Boundary Condition Object
  SunExposed,                             !- Sun Exposure
  WindExposed,                            !- Wind Exposure
  ,                                       !- View Factor to Ground
  ,                                       !- Number of Vertices
  7.63795272, 0, 6.096,                   !- X,Y,Z Vertex 1 {m}
  6.096, 4.111752, 9.179914584,           !- X,Y,Z Vertex 2 {m}
  6.096, 0, 9.179914584;                  !- X,Y,Z Vertex 3 {m}

OS:Surface,
  {e08d3606-89ac-4ec4-a40d-7172dc562697}, !- Handle
  Surface 16,                             !- Name
  Wall,                                   !- Surface Type
  ,                                       !- Construction Name
  {8e3e5e66-4389-494a-843f-cb10c2f565a8}, !- Space Name
  Outdoors,                               !- Outside Boundary Condition
  ,                                       !- Outside Boundary Condition Object
  SunExposed,                             !- Sun Exposure
  WindExposed,                            !- Wind Exposure
  ,                                       !- View Factor to Ground
  ,                                       !- Number of Vertices
  4.554042708, 0, 6.096,                  !- X,Y,Z Vertex 1 {m}
  6.096, 0, 9.179914584,                  !- X,Y,Z Vertex 2 {m}
  6.096, 4.111752, 9.179914584;           !- X,Y,Z Vertex 3 {m}

OS:Surface,
  {86c2d4bf-3386-4d67-9e4c-54ac7af62554}, !- Handle
  Surface 17,                             !- Name
  RoofCeiling,                            !- Surface Type
  ,                                       !- Construction Name
  {8e3e5e66-4389-494a-843f-cb10c2f565a8}, !- Space Name
  Outdoors,                               !- Outside Boundary Condition
  ,                                       !- Outside Boundary Condition Object
  SunExposed,                             !- Sun Exposure
  WindExposed,                            !- Wind Exposure
  ,                                       !- View Factor to Ground
  ,                                       !- Number of Vertices
  4.554042708, 0, 6.096,                  !- X,Y,Z Vertex 1 {m}
  6.096, 4.111752, 9.179914584,           !- X,Y,Z Vertex 2 {m}
  7.63795272, 0, 6.096,                   !- X,Y,Z Vertex 3 {m}
  12.192, 0, 6.096,                       !- X,Y,Z Vertex 4 {m}
  6.096, 6.096, 11.03028528,              !- X,Y,Z Vertex 5 {m}
  0, 0, 6.096;                            !- X,Y,Z Vertex 6 {m}

OS:Surface,
  {c330e039-a24d-422f-ab9c-5b5f6723eb9d}, !- Handle
  Surface 18,                             !- Name
  Wall,                                   !- Surface Type
  ,                                       !- Construction Name
  {8e3e5e66-4389-494a-843f-cb10c2f565a8}, !- Space Name
  Outdoors,                               !- Outside Boundary Condition
  ,                                       !- Outside Boundary Condition Object
  SunExposed,                             !- Sun Exposure
  WindExposed,                            !- Wind Exposure
  ,                                       !- View Factor to Ground
  ,                                       !- Number of Vertices
  4.554042708, 0, 6.096,                  !- X,Y,Z Vertex 1 {m}
  7.63795272, 0, 6.096,                   !- X,Y,Z Vertex 2 {m}
  6.096, 0, 9.179914584;                  !- X,Y,Z Vertex 3 {m}

OS:ThermalZone,
  {526c9508-fefd-4a2c-84ee-9f92bf2472e0}, !- Handle
  sp-2-Zone,                              !- Name
  ,                                       !- Multiplier
  ,                                       !- Ceiling Height {m}
  ,                                       !- Volume {m3}
  ,                                       !- Floor Area {m2}
  ,                                       !- Zone Inside Convection Algorithm
  ,                                       !- Zone Outside Convection Algorithm
  ,                                       !- Zone Conditioning Equipment List Name
  {b3019abb-9238-4180-b794-652fd886910a}, !- Zone Air Inlet Port List
  {648cc185-9652-455f-a7e4-33cdcafd3f04}, !- Zone Air Exhaust Port List
  {b2a300de-1b7c-48bc-bc8b-a81272d5aaad}, !- Zone Air Node Name
  ,                                       !- Zone Return Air Node Name
  ,                                       !- Primary Daylighting Control Name
  ,                                       !- Fraction of Zone Controlled by Primary Daylighting Control
  ,                                       !- Secondary Daylighting Control Name
  ,                                       !- Fraction of Zone Controlled by Secondary Daylighting Control
  ,                                       !- Illuminance Map Name
  ,                                       !- Group Rendering Name
  ,                                       !- Thermostat Name
  No;                                     !- Use Ideal Air Loads

OS:Node,
  {8b81993c-f487-4964-a602-421b2e836cb1}, !- Handle
  Node 1,                                 !- Name
  {b2a300de-1b7c-48bc-bc8b-a81272d5aaad}, !- Inlet Port
  ;                                       !- Outlet Port

OS:Connection,
  {b2a300de-1b7c-48bc-bc8b-a81272d5aaad}, !- Handle
  {18d4aa59-2cc4-4caf-b886-afc711a940ad}, !- Name
  {526c9508-fefd-4a2c-84ee-9f92bf2472e0}, !- Source Object
  11,                                     !- Outlet Port
  {8b81993c-f487-4964-a602-421b2e836cb1}, !- Target Object
  2;                                      !- Inlet Port

OS:PortList,
  {b3019abb-9238-4180-b794-652fd886910a}, !- Handle
  Port List 1,                            !- Name
  {526c9508-fefd-4a2c-84ee-9f92bf2472e0}; !- HVAC Component

OS:PortList,
  {648cc185-9652-455f-a7e4-33cdcafd3f04}, !- Handle
  Port List 2,                            !- Name
  {526c9508-fefd-4a2c-84ee-9f92bf2472e0}; !- HVAC Component

OS:Sizing:Zone,
  {4d6517cc-6fda-4304-9211-b3bfd50d9328}, !- Handle
  {526c9508-fefd-4a2c-84ee-9f92bf2472e0}, !- Zone or ZoneList Name
  14,                                     !- Zone Cooling Design Supply Air Temperature {C}
  40,                                     !- Zone Heating Design Supply Air Temperature {C}
  0.0085,                                 !- Zone Cooling Design Supply Air Humidity Ratio {kg-H2O/kg-air}
  0.008,                                  !- Zone Heating Design Supply Air Humidity Ratio {kg-H2O/kg-air}
  ,                                       !- Zone Heating Sizing Factor
  ,                                       !- Zone Cooling Sizing Factor
  DesignDay,                              !- Cooling Design Air Flow Method
  ,                                       !- Cooling Design Air Flow Rate {m3/s}
  ,                                       !- Cooling Minimum Air Flow per Zone Floor Area {m3/s-m2}
  ,                                       !- Cooling Minimum Air Flow {m3/s}
  ,                                       !- Cooling Minimum Air Flow Fraction
  DesignDay,                              !- Heating Design Air Flow Method
  ,                                       !- Heating Design Air Flow Rate {m3/s}
  ,                                       !- Heating Maximum Air Flow per Zone Floor Area {m3/s-m2}
  ,                                       !- Heating Maximum Air Flow {m3/s}
  ,                                       !- Heating Maximum Air Flow Fraction
  ,                                       !- Design Zone Air Distribution Effectiveness in Cooling Mode
  ;                                       !- Design Zone Air Distribution Effectiveness in Heating Mode

OS:ZoneHVAC:EquipmentList,
  {a149777c-995f-41e4-84e5-bd6de7b3b3f4}, !- Handle
  Zone HVAC Equipment List 1,             !- Name
  {526c9508-fefd-4a2c-84ee-9f92bf2472e0}; !- Thermal Zone

OS:ThermalZone,
  {2d6efca4-9c55-4fc6-8276-f196bb700cc3}, !- Handle
  sp-1-Zone,                              !- Name
  ,                                       !- Multiplier
  ,                                       !- Ceiling Height {m}
  ,                                       !- Volume {m3}
  ,                                       !- Floor Area {m2}
  ,                                       !- Zone Inside Convection Algorithm
  ,                                       !- Zone Outside Convection Algorithm
  ,                                       !- Zone Conditioning Equipment List Name
  {08269712-3fd3-4c47-bf3b-6509c4ee0ec0}, !- Zone Air Inlet Port List
  {f9593c83-f12b-435d-b0c1-9d9f361a6382}, !- Zone Air Exhaust Port List
  {df834ac9-8071-413e-89aa-410c87bf6320}, !- Zone Air Node Name
  ,                                       !- Zone Return Air Node Name
  ,                                       !- Primary Daylighting Control Name
  ,                                       !- Fraction of Zone Controlled by Primary Daylighting Control
  ,                                       !- Secondary Daylighting Control Name
  ,                                       !- Fraction of Zone Controlled by Secondary Daylighting Control
  ,                                       !- Illuminance Map Name
  ,                                       !- Group Rendering Name
  ,                                       !- Thermostat Name
  No;                                     !- Use Ideal Air Loads

OS:Node,
  {156d962e-232c-46eb-bf7c-3296d5ba9645}, !- Handle
  Node 2,                                 !- Name
  {df834ac9-8071-413e-89aa-410c87bf6320}, !- Inlet Port
  ;                                       !- Outlet Port

OS:Connection,
  {df834ac9-8071-413e-89aa-410c87bf6320}, !- Handle
  {16846070-36bb-4c27-8092-2b83dfc5650f}, !- Name
  {2d6efca4-9c55-4fc6-8276-f196bb700cc3}, !- Source Object
  11,                                     !- Outlet Port
  {156d962e-232c-46eb-bf7c-3296d5ba9645}, !- Target Object
  2;                                      !- Inlet Port

OS:PortList,
  {08269712-3fd3-4c47-bf3b-6509c4ee0ec0}, !- Handle
  Port List 3,                            !- Name
  {2d6efca4-9c55-4fc6-8276-f196bb700cc3}; !- HVAC Component

OS:PortList,
  {f9593c83-f12b-435d-b0c1-9d9f361a6382}, !- Handle
  Port List 4,                            !- Name
  {2d6efca4-9c55-4fc6-8276-f196bb700cc3}; !- HVAC Component

OS:Sizing:Zone,
  {57a63f69-6685-4ed7-aa3b-7080fd3901d9}, !- Handle
  {2d6efca4-9c55-4fc6-8276-f196bb700cc3}, !- Zone or ZoneList Name
  14,                                     !- Zone Cooling Design Supply Air Temperature {C}
  40,                                     !- Zone Heating Design Supply Air Temperature {C}
  0.0085,                                 !- Zone Cooling Design Supply Air Humidity Ratio {kg-H2O/kg-air}
  0.008,                                  !- Zone Heating Design Supply Air Humidity Ratio {kg-H2O/kg-air}
  ,                                       !- Zone Heating Sizing Factor
  ,                                       !- Zone Cooling Sizing Factor
  DesignDay,                              !- Cooling Design Air Flow Method
  ,                                       !- Cooling Design Air Flow Rate {m3/s}
  ,                                       !- Cooling Minimum Air Flow per Zone Floor Area {m3/s-m2}
  ,                                       !- Cooling Minimum Air Flow {m3/s}
  ,                                       !- Cooling Minimum Air Flow Fraction
  DesignDay,                              !- Heating Design Air Flow Method
  ,                                       !- Heating Design Air Flow Rate {m3/s}
  ,                                       !- Heating Maximum Air Flow per Zone Floor Area {m3/s-m2}
  ,                                       !- Heating Maximum Air Flow {m3/s}
  ,                                       !- Heating Maximum Air Flow Fraction
  ,                                       !- Design Zone Air Distribution Effectiveness in Cooling Mode
  ;                                       !- Design Zone Air Distribution Effectiveness in Heating Mode

OS:ZoneHVAC:EquipmentList,
  {0c3450e5-1529-4ed8-8103-b32f824e61cb}, !- Handle
  Zone HVAC Equipment List 2,             !- Name
  {2d6efca4-9c55-4fc6-8276-f196bb700cc3}; !- Thermal Zone

