
OS:Version,
  {facb4414-873d-40d8-9e1d-c1e18754511a}, !- Handle
  1.12.2;                                 !- Version Identifier

OS:SpaceType,
  {58d164c9-8bfd-44d4-b1e6-1dba9b22649f}, !- Handle
  189.1-2009 - Office - Lobby - CZ4-8,    !- Name
  ,                                       !- Default Construction Set Name
  {00b04c6c-eecb-43f4-b6cd-f9401a438674}, !- Default Schedule Set Name
  {1b930b4a-cf7c-4723-bfb8-fd460b35ef18}, !- Group Rendering Name
  {fc65a6e4-44c8-4da5-87ea-7c2c075231e5}, !- Design Specification Outdoor Air Object Name
  Office,                                 !- Standards Building Type
  Lobby;                                  !- Standards Space Type

OS:DefaultScheduleSet,
  {00b04c6c-eecb-43f4-b6cd-f9401a438674}, !- Handle
  189.1-2009 - Office - Lobby - CZ4-8 Schedule Set, !- Name
  ,                                       !- Hours of Operation Schedule Name
  {db74b4bd-9f34-448b-870d-4d4fc896ae03}, !- Number of People Schedule Name
  {4f4ae85a-f3bf-447b-9545-abe9b3368733}, !- People Activity Level Schedule Name
  {840e5b10-de22-4aa6-9b5c-2b1533a8505f}, !- Lighting Schedule Name
  {c0239705-54bd-4512-9502-16a5b1293323}, !- Electric Equipment Schedule Name
  ,                                       !- Gas Equipment Schedule Name
  ,                                       !- Hot Water Equipment Schedule Name
  {de543720-5355-47dd-9f72-464a4bf46f27}, !- Infiltration Schedule Name
  ,                                       !- Steam Equipment Schedule Name
  ;                                       !- Other Equipment Schedule Name

OS:Rendering:Color,
  {1b930b4a-cf7c-4723-bfb8-fd460b35ef18}, !- Handle
  Rendering Color 23,                     !- Name
  230,                                    !- Rendering Red Value
  157,                                    !- Rendering Green Value
  120;                                    !- Rendering Blue Value

OS:DesignSpecification:OutdoorAir,
  {fc65a6e4-44c8-4da5-87ea-7c2c075231e5}, !- Handle
  189.1-2009 - Office - Lobby - CZ4-8 Ventilation, !- Name
  Sum,                                    !- Outdoor Air Method
  0.007079211648,                         !- Outdoor Air Flow per Person {m3/s-person}
  ,                                       !- Outdoor Air Flow per Floor Area {m3/s-m2}
  ,                                       !- Outdoor Air Flow Rate {m3/s}
  ,                                       !- Outdoor Air Flow Air Changes per Hour {1/hr}
  ;                                       !- Outdoor Air Flow Rate Fraction Schedule Name

OS:Schedule:Ruleset,
  {db74b4bd-9f34-448b-870d-4d4fc896ae03}, ! Handle
  Office Misc Occ,                        ! Name
  {ba3b072d-add7-4444-bfaf-30dba135d0aa}, ! Schedule Type Limits Name
  {f09883a9-2bd9-478c-9854-9103f2717442}, ! Default Day Schedule Name
  {d17ee9ea-0134-4d04-b284-1b3f2728110b}, ! Summer Design Day Schedule Name
  {79bb4347-b41b-4286-b0bf-79b3eb3fc7c4}; ! Winter Design Day Schedule Name

OS:Schedule:Day,
  {f09883a9-2bd9-478c-9854-9103f2717442}, ! Handle
  Office Bldg Occ Default Schedule 1,     ! Name
  {ba3b072d-add7-4444-bfaf-30dba135d0aa}, ! Schedule Type Limits Name
  ,                                       ! Interpolate to Timestep
  6,                                      !- Hour 1
  0,                                      !- Minute 1
  0,                                      !- Value Until Time 1
  7,                                      !- Hour 2
  0,                                      !- Minute 2
  0.100000001490116,                      !- Value Until Time 2
  8,                                      !- Hour 3
  0,                                      !- Minute 3
  0.200000002980232,                      !- Value Until Time 3
  20,                                     !- Hour 4
  0,                                      !- Minute 4
  0.400000005960464,                      !- Value Until Time 4
  22,                                     !- Hour 5
  0,                                      !- Minute 5
  0.100000001490116,                      !- Value Until Time 5
  24,                                     !- Hour 6
  0,                                      !- Minute 6
  0.0500000007450581;                     !- Value Until Time 6

OS:Schedule:Day,
  {d17ee9ea-0134-4d04-b284-1b3f2728110b}, ! Handle
  Office Bldg Occ Summer Design Day 1,    ! Name
  {ba3b072d-add7-4444-bfaf-30dba135d0aa}, ! Schedule Type Limits Name
  ,                                       ! Interpolate to Timestep
  6,                                      ! Hour 1
  0,                                      ! Minute 1
  0,                                      ! Value Until Time 1
  22,                                     ! Hour 2
  0,                                      ! Minute 2
  1,                                      ! Value Until Time 2
  24,                                     ! Hour 3
  0,                                      ! Minute 3
  0.050000000000000003;                   ! Value Until Time 3

OS:Schedule:Day,
  {79bb4347-b41b-4286-b0bf-79b3eb3fc7c4}, ! Handle
  Office Bldg Occ Winter Design Day 1,    ! Name
  {ba3b072d-add7-4444-bfaf-30dba135d0aa}, ! Schedule Type Limits Name
  ,                                       ! Interpolate to Timestep
  24,                                     ! Hour 1
  0,                                      ! Minute 1
  0;                                      ! Value Until Time 1

OS:Schedule:Rule,
  {9293b56b-1fc0-4288-9fe4-259172881e92}, ! Handle
  Office Misc Occ Rule 1,                 ! Name
  {db74b4bd-9f34-448b-870d-4d4fc896ae03}, ! Schedule Ruleset Name
  0,                                      ! Rule Order
  {d9256edf-20fa-4929-b8d8-4c1aaf0f2bd7}, ! Day Schedule Name
  Yes,                                    ! Apply Sunday
  No,                                     ! Apply Monday
  No,                                     ! Apply Tuesday
  No,                                     ! Apply Wednesday
  No,                                     ! Apply Thursday
  No,                                     ! Apply Friday
  No,                                     ! Apply Saturday
  ,                                       ! Apply Holiday
  DateRange,                              ! Date Specification Type
  1,                                      ! Start Month
  1,                                      ! Start Day
  12,                                     ! End Month
  31;                                     ! End Day

OS:Schedule:Rule,
  {e19a7b24-2392-4cfb-a226-ab4d141dad60}, ! Handle
  Office Misc Occ Rule 2,                 ! Name
  {db74b4bd-9f34-448b-870d-4d4fc896ae03}, ! Schedule Ruleset Name
  1,                                      ! Rule Order
  {d70f191f-c2e2-4443-ae07-173c774d6f00}, ! Day Schedule Name
  No,                                     ! Apply Sunday
  No,                                     ! Apply Monday
  No,                                     ! Apply Tuesday
  No,                                     ! Apply Wednesday
  No,                                     ! Apply Thursday
  No,                                     ! Apply Friday
  Yes,                                    ! Apply Saturday
  ,                                       ! Apply Holiday
  DateRange,                              ! Date Specification Type
  1,                                      ! Start Month
  1,                                      ! Start Day
  12,                                     ! End Month
  31;                                     ! End Day

OS:Schedule:Day,
  {d9256edf-20fa-4929-b8d8-4c1aaf0f2bd7}, ! Handle
  Office Bldg Occ Rule 1 Day Schedule 1,  ! Name
  {ba3b072d-add7-4444-bfaf-30dba135d0aa}, ! Schedule Type Limits Name
  ,                                       ! Interpolate to Timestep
  24,                                     ! Hour 1
  0,                                      ! Minute 1
  0;                                      ! Value Until Time 1

OS:Schedule:Day,
  {d70f191f-c2e2-4443-ae07-173c774d6f00}, ! Handle
  Office Bldg Occ Rule 2 Day Schedule 1,  ! Name
  {ba3b072d-add7-4444-bfaf-30dba135d0aa}, ! Schedule Type Limits Name
  ,                                       ! Interpolate to Timestep
  6,                                      !- Hour 1
  0,                                      !- Minute 1
  0,                                      !- Value Until Time 1
  8,                                      !- Hour 2
  0,                                      !- Minute 2
  0.100000001490116,                      !- Value Until Time 2
  14,                                     !- Hour 3
  0,                                      !- Minute 3
  0.25,                                   !- Value Until Time 3
  17,                                     !- Hour 4
  0,                                      !- Minute 4
  0.100000001490116,                      !- Value Until Time 4
  24,                                     !- Hour 5
  0,                                      !- Minute 5
  0;                                      !- Value Until Time 5

OS:Schedule:Ruleset,
  {4f4ae85a-f3bf-447b-9545-abe9b3368733}, ! Handle
  Office Activity,                        ! Name
  {d0c7d14f-e3fe-4638-a783-173cf164550b}, ! Schedule Type Limits Name
  {2036948b-a6a3-4f9b-9ac4-132db7f0d9c3}, ! Default Day Schedule Name
  {574ca665-66e4-4742-b16f-ca3b510f66c8}, ! Summer Design Day Schedule Name
  {3c07a3fd-ef39-4ae7-9ce2-dc25481706a4}; ! Winter Design Day Schedule Name

OS:Schedule:Day,
  {2036948b-a6a3-4f9b-9ac4-132db7f0d9c3}, ! Handle
  Office Activity Default Schedule,       ! Name
  {d0c7d14f-e3fe-4638-a783-173cf164550b}, ! Schedule Type Limits Name
  ,                                       ! Interpolate to Timestep
  24,                                     !- Hour 1
  0,                                      !- Minute 1
  132;                                    !- Value Until Time 1

OS:Schedule:Day,
  {574ca665-66e4-4742-b16f-ca3b510f66c8}, ! Handle
  Office Activity Summer Design Day,      ! Name
  {d0c7d14f-e3fe-4638-a783-173cf164550b}, ! Schedule Type Limits Name
  ,                                       ! Interpolate to Timestep
  24,                                     !- Hour 1
  0,                                      !- Minute 1
  132;                                    !- Value Until Time 1

OS:Schedule:Day,
  {3c07a3fd-ef39-4ae7-9ce2-dc25481706a4}, ! Handle
  Office Activity Winter Design Day,      ! Name
  {d0c7d14f-e3fe-4638-a783-173cf164550b}, ! Schedule Type Limits Name
  ,                                       ! Interpolate to Timestep
  24,                                     !- Hour 1
  0,                                      !- Minute 1
  132;                                    !- Value Until Time 1

OS:Schedule:Ruleset,
  {840e5b10-de22-4aa6-9b5c-2b1533a8505f}, ! Handle
  Office Bldg Light,                      ! Name
  {ba3b072d-add7-4444-bfaf-30dba135d0aa}, ! Schedule Type Limits Name
  {0afeec53-6fd9-4a96-aa7b-f75a2a88a066}, ! Default Day Schedule Name
  {5eaa8ce1-22cc-4ea5-a7e1-a70f86332f2e}, ! Summer Design Day Schedule Name
  {9d386eef-72c4-487d-9ab1-6781fc5199e0}; ! Winter Design Day Schedule Name

OS:Schedule:Day,
  {0afeec53-6fd9-4a96-aa7b-f75a2a88a066}, ! Handle
  Office Bldg Light Default Schedule,     ! Name
  {ba3b072d-add7-4444-bfaf-30dba135d0aa}, ! Schedule Type Limits Name
  ,                                       ! Interpolate to Timestep
  5,                                      !- Hour 1
  0,                                      !- Minute 1
  0.05,                                   !- Value Until Time 1
  7,                                      !- Hour 2
  0,                                      !- Minute 2
  0.1,                                    !- Value Until Time 2
  8,                                      !- Hour 3
  0,                                      !- Minute 3
  0.3,                                    !- Value Until Time 3
  17,                                     !- Hour 4
  0,                                      !- Minute 4
  0.9,                                    !- Value Until Time 4
  18,                                     !- Hour 5
  0,                                      !- Minute 5
  0.7,                                    !- Value Until Time 5
  20,                                     !- Hour 6
  0,                                      !- Minute 6
  0.5,                                    !- Value Until Time 6
  22,                                     !- Hour 7
  0,                                      !- Minute 7
  0.3,                                    !- Value Until Time 7
  23,                                     !- Hour 8
  0,                                      !- Minute 8
  0.1,                                    !- Value Until Time 8
  24,                                     !- Hour 9
  0,                                      !- Minute 9
  0.05;                                   !- Value Until Time 9

OS:Schedule:Day,
  {5eaa8ce1-22cc-4ea5-a7e1-a70f86332f2e}, ! Handle
  Office Bldg Light Summer Design Day,    ! Name
  {ba3b072d-add7-4444-bfaf-30dba135d0aa}, ! Schedule Type Limits Name
  ,                                       ! Interpolate to Timestep
  24,                                     ! Hour 1
  0,                                      ! Minute 1
  1;                                      ! Value Until Time 1

OS:Schedule:Day,
  {9d386eef-72c4-487d-9ab1-6781fc5199e0}, ! Handle
  Office Bldg Light Winter Design Day,    ! Name
  {ba3b072d-add7-4444-bfaf-30dba135d0aa}, ! Schedule Type Limits Name
  ,                                       ! Interpolate to Timestep
  24,                                     ! Hour 1
  0,                                      ! Minute 1
  0;                                      ! Value Until Time 1

OS:Schedule:Rule,
  {3682f250-d024-42b2-aa91-eb5713c6b8bd}, ! Handle
  Office Bldg Light Rule 1,               ! Name
  {840e5b10-de22-4aa6-9b5c-2b1533a8505f}, ! Schedule Ruleset Name
  0,                                      ! Rule Order
  {8c440095-877b-4f77-9900-92a9fc713aea}, ! Day Schedule Name
  Yes,                                    ! Apply Sunday
  No,                                     ! Apply Monday
  No,                                     ! Apply Tuesday
  No,                                     ! Apply Wednesday
  No,                                     ! Apply Thursday
  No,                                     ! Apply Friday
  No,                                     ! Apply Saturday
  ,                                       ! Apply Holiday
  DateRange,                              ! Date Specification Type
  1,                                      ! Start Month
  1,                                      ! Start Day
  12,                                     ! End Month
  31;                                     ! End Day

OS:Schedule:Rule,
  {511c13e3-81cf-4c46-8c83-90982cff1143}, ! Handle
  Office Bldg Light Rule 2,               ! Name
  {840e5b10-de22-4aa6-9b5c-2b1533a8505f}, ! Schedule Ruleset Name
  1,                                      ! Rule Order
  {73a40531-e2c8-452e-b8cf-3b5a30d1fbe0}, ! Day Schedule Name
  No,                                     ! Apply Sunday
  No,                                     ! Apply Monday
  No,                                     ! Apply Tuesday
  No,                                     ! Apply Wednesday
  No,                                     ! Apply Thursday
  No,                                     ! Apply Friday
  Yes,                                    ! Apply Saturday
  ,                                       ! Apply Holiday
  DateRange,                              ! Date Specification Type
  1,                                      ! Start Month
  1,                                      ! Start Day
  12,                                     ! End Month
  31;                                     ! End Day

OS:Schedule:Day,
  {8c440095-877b-4f77-9900-92a9fc713aea}, ! Handle
  Office Bldg Light Rule 1 Day Schedule,  ! Name
  {ba3b072d-add7-4444-bfaf-30dba135d0aa}, ! Schedule Type Limits Name
  ,                                       ! Interpolate to Timestep
  24,                                     ! Hour 1
  0,                                      ! Minute 1
  0.050000000000000003;                   ! Value Until Time 1

OS:Schedule:Day,
  {73a40531-e2c8-452e-b8cf-3b5a30d1fbe0}, ! Handle
  Office Bldg Light Rule 2 Day Schedule,  ! Name
  {ba3b072d-add7-4444-bfaf-30dba135d0aa}, ! Schedule Type Limits Name
  ,                                       ! Interpolate to Timestep
  6,                                      ! Hour 1
  0,                                      ! Minute 1
  0.050000000000000003,                   ! Value Until Time 1
  8,                                      ! Hour 2
  0,                                      ! Minute 2
  0.10000000000000001,                    ! Value Until Time 2
  14,                                     ! Hour 3
  0,                                      ! Minute 3
  0.5,                                    ! Value Until Time 3
  17,                                     ! Hour 4
  0,                                      ! Minute 4
  0.14999999999999999,                    ! Value Until Time 4
  24,                                     ! Hour 5
  0,                                      ! Minute 5
  0.050000000000000003;                   ! Value Until Time 5

OS:Schedule:Ruleset,
  {c0239705-54bd-4512-9502-16a5b1293323}, ! Handle
  Office Bldg Equip,                      ! Name
  {ba3b072d-add7-4444-bfaf-30dba135d0aa}, ! Schedule Type Limits Name
  {b1f44c13-37d6-46c6-a08c-8082e5d01018}, ! Default Day Schedule Name
  {11616e59-7177-48cb-8a34-5831fb190393}, ! Summer Design Day Schedule Name
  {2e755b2a-ef23-4393-ac43-06339e8f7d68}; ! Winter Design Day Schedule Name

OS:Schedule:Day,
  {b1f44c13-37d6-46c6-a08c-8082e5d01018}, ! Handle
  Office Bldg Equip Default Schedule,     ! Name
  {ba3b072d-add7-4444-bfaf-30dba135d0aa}, ! Schedule Type Limits Name
  ,                                       ! Interpolate to Timestep
  8,                                      !- Hour 1
  0,                                      !- Minute 1
  0.4,                                    !- Value Until Time 1
  12,                                     !- Hour 2
  0,                                      !- Minute 2
  0.9,                                    !- Value Until Time 2
  13,                                     !- Hour 3
  0,                                      !- Minute 3
  0.8,                                    !- Value Until Time 3
  17,                                     !- Hour 4
  0,                                      !- Minute 4
  0.9,                                    !- Value Until Time 4
  18,                                     !- Hour 5
  0,                                      !- Minute 5
  0.8,                                    !- Value Until Time 5
  20,                                     !- Hour 6
  0,                                      !- Minute 6
  0.6,                                    !- Value Until Time 6
  22,                                     !- Hour 7
  0,                                      !- Minute 7
  0.5,                                    !- Value Until Time 7
  24,                                     !- Hour 8
  0,                                      !- Minute 8
  0.4;                                    !- Value Until Time 8

OS:Schedule:Day,
  {11616e59-7177-48cb-8a34-5831fb190393}, ! Handle
  Office Bldg Equip Summer Design Day,    ! Name
  {ba3b072d-add7-4444-bfaf-30dba135d0aa}, ! Schedule Type Limits Name
  ,                                       ! Interpolate to Timestep
  24,                                     ! Hour 1
  0,                                      ! Minute 1
  1;                                      ! Value Until Time 1

OS:Schedule:Day,
  {2e755b2a-ef23-4393-ac43-06339e8f7d68}, ! Handle
  Office Bldg Equip Winter Design Day,    ! Name
  {ba3b072d-add7-4444-bfaf-30dba135d0aa}, ! Schedule Type Limits Name
  ,                                       ! Interpolate to Timestep
  24,                                     ! Hour 1
  0,                                      ! Minute 1
  0;                                      ! Value Until Time 1

OS:Schedule:Rule,
  {0f7806a5-62d3-4345-aba1-22d40ca88fdc}, ! Handle
  Office Bldg Equip Rule 1,               ! Name
  {c0239705-54bd-4512-9502-16a5b1293323}, ! Schedule Ruleset Name
  0,                                      ! Rule Order
  {c42158d4-77b2-46ad-9e58-b8994f3fac0c}, ! Day Schedule Name
  Yes,                                    ! Apply Sunday
  No,                                     ! Apply Monday
  No,                                     ! Apply Tuesday
  No,                                     ! Apply Wednesday
  No,                                     ! Apply Thursday
  No,                                     ! Apply Friday
  No,                                     ! Apply Saturday
  ,                                       ! Apply Holiday
  DateRange,                              ! Date Specification Type
  1,                                      ! Start Month
  1,                                      ! Start Day
  12,                                     ! End Month
  31;                                     ! End Day

OS:Schedule:Rule,
  {cc647f79-ee6b-4514-84df-9dbea7887978}, ! Handle
  Office Bldg Equip Rule 2,               ! Name
  {c0239705-54bd-4512-9502-16a5b1293323}, ! Schedule Ruleset Name
  1,                                      ! Rule Order
  {8a8806b5-e818-46b8-963d-c60a26914641}, ! Day Schedule Name
  No,                                     ! Apply Sunday
  No,                                     ! Apply Monday
  No,                                     ! Apply Tuesday
  No,                                     ! Apply Wednesday
  No,                                     ! Apply Thursday
  No,                                     ! Apply Friday
  Yes,                                    ! Apply Saturday
  ,                                       ! Apply Holiday
  DateRange,                              ! Date Specification Type
  1,                                      ! Start Month
  1,                                      ! Start Day
  12,                                     ! End Month
  31;                                     ! End Day

OS:Schedule:Day,
  {c42158d4-77b2-46ad-9e58-b8994f3fac0c}, ! Handle
  Office Bldg Equip Rule 1 Day Schedule,  ! Name
  {ba3b072d-add7-4444-bfaf-30dba135d0aa}, ! Schedule Type Limits Name
  ,                                       ! Interpolate to Timestep
  24,                                     ! Hour 1
  0,                                      ! Minute 1
  0.29999999999999999;                    ! Value Until Time 1

OS:Schedule:Day,
  {8a8806b5-e818-46b8-963d-c60a26914641}, ! Handle
  Office Bldg Equip Rule 2 Day Schedule,  ! Name
  {ba3b072d-add7-4444-bfaf-30dba135d0aa}, ! Schedule Type Limits Name
  ,                                       ! Interpolate to Timestep
  6,                                      ! Hour 1
  0,                                      ! Minute 1
  0.29999999999999999,                    ! Value Until Time 1
  8,                                      ! Hour 2
  0,                                      ! Minute 2
  0.40000000000000002,                    ! Value Until Time 2
  14,                                     ! Hour 3
  0,                                      ! Minute 3
  0.5,                                    ! Value Until Time 3
  17,                                     ! Hour 4
  0,                                      ! Minute 4
  0.34999999999999998,                    ! Value Until Time 4
  24,                                     ! Hour 5
  0,                                      ! Minute 5
  0.29999999999999999;                    ! Value Until Time 5

OS:Schedule:Ruleset,
  {de543720-5355-47dd-9f72-464a4bf46f27}, ! Handle
  Office Infil Quarter On,                ! Name
  {ba3b072d-add7-4444-bfaf-30dba135d0aa}, ! Schedule Type Limits Name
  {b60a3d18-f7d6-4303-8ed4-ae7178d5e859}, ! Default Day Schedule Name
  {3cc9b28e-ddb4-4f8e-8d91-ea1a2bed218c}, ! Summer Design Day Schedule Name
  {a3b455c6-782d-4fc0-8e13-b0322bd1bc07}; ! Winter Design Day Schedule Name

OS:Schedule:Day,
  {b60a3d18-f7d6-4303-8ed4-ae7178d5e859}, ! Handle
  Office Infil Quarter On Default Schedule, ! Name
  {ba3b072d-add7-4444-bfaf-30dba135d0aa}, ! Schedule Type Limits Name
  ,                                       ! Interpolate to Timestep
  6,                                      !- Hour 1
  0,                                      !- Minute 1
  1,                                      !- Value Until Time 1
  22,                                     !- Hour 2
  0,                                      !- Minute 2
  0.25,                                   !- Value Until Time 2
  24,                                     !- Hour 3
  0,                                      !- Minute 3
  1;                                      !- Value Until Time 3

OS:Schedule:Day,
  {3cc9b28e-ddb4-4f8e-8d91-ea1a2bed218c}, ! Handle
  Office Infil Quarter On Summer Design Day, ! Name
  {ba3b072d-add7-4444-bfaf-30dba135d0aa}, ! Schedule Type Limits Name
  ,                                       ! Interpolate to Timestep
  6,                                      ! Hour 1
  0,                                      ! Minute 1
  1,                                      ! Value Until Time 1
  22,                                     ! Hour 2
  0,                                      ! Minute 2
  0.25,                                   ! Value Until Time 2
  24,                                     ! Hour 3
  0,                                      ! Minute 3
  1;                                      ! Value Until Time 3

OS:Schedule:Day,
  {a3b455c6-782d-4fc0-8e13-b0322bd1bc07}, ! Handle
  Office Infil Quarter On Winter Design Day, ! Name
  {ba3b072d-add7-4444-bfaf-30dba135d0aa}, ! Schedule Type Limits Name
  ,                                       ! Interpolate to Timestep
  6,                                      ! Hour 1
  0,                                      ! Minute 1
  1,                                      ! Value Until Time 1
  18,                                     ! Hour 2
  0,                                      ! Minute 2
  0.25,                                   ! Value Until Time 2
  24,                                     ! Hour 3
  0,                                      ! Minute 3
  1;                                      ! Value Until Time 3

OS:Schedule:Rule,
  {452f17aa-3d24-4ec4-9d16-5aee7a13030f}, ! Handle
  Office Infil Quarter On Rule 1,         ! Name
  {de543720-5355-47dd-9f72-464a4bf46f27}, ! Schedule Ruleset Name
  0,                                      ! Rule Order
  {ffe2884a-d7d8-4f24-894c-2fb067452b5a}, ! Day Schedule Name
  Yes,                                    ! Apply Sunday
  No,                                     ! Apply Monday
  No,                                     ! Apply Tuesday
  No,                                     ! Apply Wednesday
  No,                                     ! Apply Thursday
  No,                                     ! Apply Friday
  No,                                     ! Apply Saturday
  ,                                       ! Apply Holiday
  DateRange,                              ! Date Specification Type
  1,                                      ! Start Month
  1,                                      ! Start Day
  12,                                     ! End Month
  31;                                     ! End Day

OS:Schedule:Rule,
  {b5f1bf90-d48a-4a2c-8ff4-ea17ac534b5f}, ! Handle
  Office Infil Quarter On Rule 2,         ! Name
  {de543720-5355-47dd-9f72-464a4bf46f27}, ! Schedule Ruleset Name
  1,                                      ! Rule Order
  {cafa18d0-f5db-4598-8f1d-c8636e0f252a}, ! Day Schedule Name
  No,                                     ! Apply Sunday
  No,                                     ! Apply Monday
  No,                                     ! Apply Tuesday
  No,                                     ! Apply Wednesday
  No,                                     ! Apply Thursday
  No,                                     ! Apply Friday
  Yes,                                    ! Apply Saturday
  ,                                       ! Apply Holiday
  DateRange,                              ! Date Specification Type
  1,                                      ! Start Month
  1,                                      ! Start Day
  12,                                     ! End Month
  31;                                     ! End Day

OS:Schedule:Day,
  {ffe2884a-d7d8-4f24-894c-2fb067452b5a}, ! Handle
  Office Infil Quarter On Rule 1 Day Schedule, ! Name
  {ba3b072d-add7-4444-bfaf-30dba135d0aa}, ! Schedule Type Limits Name
  ,                                       ! Interpolate to Timestep
  24,                                     ! Hour 1
  0,                                      ! Minute 1
  1;                                      ! Value Until Time 1

OS:Schedule:Day,
  {cafa18d0-f5db-4598-8f1d-c8636e0f252a}, ! Handle
  Office Infil Quarter On Rule 2 Day Schedule, ! Name
  {ba3b072d-add7-4444-bfaf-30dba135d0aa}, ! Schedule Type Limits Name
  ,                                       ! Interpolate to Timestep
  6,                                      ! Hour 1
  0,                                      ! Minute 1
  1,                                      ! Value Until Time 1
  18,                                     ! Hour 2
  0,                                      ! Minute 2
  0.25,                                   ! Value Until Time 2
  24,                                     ! Hour 3
  0,                                      ! Minute 3
  1;                                      ! Value Until Time 3

OS:ScheduleTypeLimits,
  {ba3b072d-add7-4444-bfaf-30dba135d0aa}, ! Handle
  Fraction,                               ! Name