
OS:Version,
  {ba29609a-d220-46b2-be26-a6abfd8616c9}, !- Handle
  1.12.2;                                 !- Version Identifier

OS:SpaceType,
  {ec7d9240-2dcc-484d-95a0-d17c844c2891}, !- Handle
  189.1-2009 - Office - Lobby - CZ4-8,    !- Name
  ,                                       !- Default Construction Set Name
  {2077acc9-c99c-4c4d-b097-37d8fe3e289d}, !- Default Schedule Set Name
  {6b7e21bf-8323-4305-a86f-69c0568df50c}, !- Group Rendering Name
  {a131a7a5-e94b-4ede-a574-42cab32fa8bc}, !- Design Specification Outdoor Air Object Name
  Office,                                 !- Standards Building Type
  Lobby;                                  !- Standards Space Type

OS:DefaultScheduleSet,
  {2077acc9-c99c-4c4d-b097-37d8fe3e289d}, !- Handle
  189.1-2009 - Office - Lobby - CZ4-8 Schedule Set, !- Name
  ,                                       !- Hours of Operation Schedule Name
  {b7746b0f-dc6f-4aa8-9a82-2cf9122ef26d}, !- Number of People Schedule Name
  {72a565cc-4fa5-4176-bd65-6a1f32d7a2e3}, !- People Activity Level Schedule Name
  {f67a7048-7ea7-4a6f-871d-4765b71d0d35}, !- Lighting Schedule Name
  {4bbf49fe-8548-4de0-bb08-22f7c539f94a}, !- Electric Equipment Schedule Name
  ,                                       !- Gas Equipment Schedule Name
  ,                                       !- Hot Water Equipment Schedule Name
  {3eeee99a-b2ae-4e73-806c-a66237dea362}, !- Infiltration Schedule Name
  ,                                       !- Steam Equipment Schedule Name
  ;                                       !- Other Equipment Schedule Name

OS:Rendering:Color,
  {6b7e21bf-8323-4305-a86f-69c0568df50c}, !- Handle
  Rendering Color 23,                     !- Name
  230,                                    !- Rendering Red Value
  157,                                    !- Rendering Green Value
  120;                                    !- Rendering Blue Value

OS:DesignSpecification:OutdoorAir,
  {a131a7a5-e94b-4ede-a574-42cab32fa8bc}, !- Handle
  189.1-2009 - Office - Lobby - CZ4-8 Ventilation, !- Name
  Sum,                                    !- Outdoor Air Method
  0.007079211648,                         !- Outdoor Air Flow per Person {m3/s-person}
  ,                                       !- Outdoor Air Flow per Floor Area {m3/s-m2}
  ,                                       !- Outdoor Air Flow Rate {m3/s}
  ,                                       !- Outdoor Air Flow Air Changes per Hour {1/hr}
  ;                                       !- Outdoor Air Flow Rate Fraction Schedule Name

OS:Schedule:Ruleset,
  {b7746b0f-dc6f-4aa8-9a82-2cf9122ef26d}, ! Handle
  Office Misc Occ,                        ! Name
  {f3ddfa5e-5cfa-48d7-9c7c-ff0ef397057a}, ! Schedule Type Limits Name
  {9a96b2af-913c-4751-b4f4-8ce6e3ba3ef6}, ! Default Day Schedule Name
  {44323d49-a835-4653-b219-7ce55731276e}, ! Summer Design Day Schedule Name
  {719caebe-e078-4e40-88b8-75ef2449bf8b}; ! Winter Design Day Schedule Name

OS:Schedule:Day,
  {9a96b2af-913c-4751-b4f4-8ce6e3ba3ef6}, ! Handle
  Office Bldg Occ Default Schedule 1,     ! Name
  {f3ddfa5e-5cfa-48d7-9c7c-ff0ef397057a}, ! Schedule Type Limits Name
  ,                                       ! Interpolate to Timestep
  6,                                      !- Hour 1
  0,                                      !- Minute 1
  0,                                      !- Value Until Time 1
  7,                                      !- Hour 2
  0,                                      !- Minute 2
  0.100000001490116,                      !- Value Until Time 2
  8,                                      !- Hour 3
  0,                                      !- Minute 3
  0.200000002980232,                      !- Value Until Time 3
  20,                                     !- Hour 4
  0,                                      !- Minute 4
  0.400000005960464,                      !- Value Until Time 4
  22,                                     !- Hour 5
  0,                                      !- Minute 5
  0.100000001490116,                      !- Value Until Time 5
  24,                                     !- Hour 6
  0,                                      !- Minute 6
  0.0500000007450581;                     !- Value Until Time 6

OS:Schedule:Day,
  {44323d49-a835-4653-b219-7ce55731276e}, ! Handle
  Office Bldg Occ Summer Design Day 1,    ! Name
  {f3ddfa5e-5cfa-48d7-9c7c-ff0ef397057a}, ! Schedule Type Limits Name
  ,                                       ! Interpolate to Timestep
  6,                                      ! Hour 1
  0,                                      ! Minute 1
  0,                                      ! Value Until Time 1
  22,                                     ! Hour 2
  0,                                      ! Minute 2
  1,                                      ! Value Until Time 2
  24,                                     ! Hour 3
  0,                                      ! Minute 3
  0.050000000000000003;                   ! Value Until Time 3

OS:Schedule:Day,
  {719caebe-e078-4e40-88b8-75ef2449bf8b}, ! Handle
  Office Bldg Occ Winter Design Day 1,    ! Name
  {f3ddfa5e-5cfa-48d7-9c7c-ff0ef397057a}, ! Schedule Type Limits Name
  ,                                       ! Interpolate to Timestep
  24,                                     ! Hour 1
  0,                                      ! Minute 1
  0;                                      ! Value Until Time 1

OS:Schedule:Rule,
  {65371a57-da02-4519-a49d-4ba3e8a759c1}, ! Handle
  Office Misc Occ Rule 1,                 ! Name
  {b7746b0f-dc6f-4aa8-9a82-2cf9122ef26d}, ! Schedule Ruleset Name
  0,                                      ! Rule Order
  {bf9ba79f-53d8-4d96-88f5-80d5b8bde50d}, ! Day Schedule Name
  Yes,                                    ! Apply Sunday
  No,                                     ! Apply Monday
  No,                                     ! Apply Tuesday
  No,                                     ! Apply Wednesday
  No,                                     ! Apply Thursday
  No,                                     ! Apply Friday
  No,                                     ! Apply Saturday
  ,                                       ! Apply Holiday
  DateRange,                              ! Date Specification Type
  1,                                      ! Start Month
  1,                                      ! Start Day
  12,                                     ! End Month
  31;                                     ! End Day

OS:Schedule:Rule,
  {49ce540d-6241-423b-af22-9acb1f0c897e}, ! Handle
  Office Misc Occ Rule 2,                 ! Name
  {b7746b0f-dc6f-4aa8-9a82-2cf9122ef26d}, ! Schedule Ruleset Name
  1,                                      ! Rule Order
  {7f292941-6852-4561-948a-071b0fb80aaf}, ! Day Schedule Name
  No,                                     ! Apply Sunday
  No,                                     ! Apply Monday
  No,                                     ! Apply Tuesday
  No,                                     ! Apply Wednesday
  No,                                     ! Apply Thursday
  No,                                     ! Apply Friday
  Yes,                                    ! Apply Saturday
  ,                                       ! Apply Holiday
  DateRange,                              ! Date Specification Type
  1,                                      ! Start Month
  1,                                      ! Start Day
  12,                                     ! End Month
  31;                                     ! End Day

OS:Schedule:Day,
  {bf9ba79f-53d8-4d96-88f5-80d5b8bde50d}, ! Handle
  Office Bldg Occ Rule 1 Day Schedule 1,  ! Name
  {f3ddfa5e-5cfa-48d7-9c7c-ff0ef397057a}, ! Schedule Type Limits Name
  ,                                       ! Interpolate to Timestep
  24,                                     ! Hour 1
  0,                                      ! Minute 1
  0;                                      ! Value Until Time 1

OS:Schedule:Day,
  {7f292941-6852-4561-948a-071b0fb80aaf}, ! Handle
  Office Bldg Occ Rule 2 Day Schedule 1,  ! Name
  {f3ddfa5e-5cfa-48d7-9c7c-ff0ef397057a}, ! Schedule Type Limits Name
  ,                                       ! Interpolate to Timestep
  6,                                      !- Hour 1
  0,                                      !- Minute 1
  0,                                      !- Value Until Time 1
  8,                                      !- Hour 2
  0,                                      !- Minute 2
  0.100000001490116,                      !- Value Until Time 2
  14,                                     !- Hour 3
  0,                                      !- Minute 3
  0.25,                                   !- Value Until Time 3
  17,                                     !- Hour 4
  0,                                      !- Minute 4
  0.100000001490116,                      !- Value Until Time 4
  24,                                     !- Hour 5
  0,                                      !- Minute 5
  0;                                      !- Value Until Time 5

OS:Schedule:Ruleset,
  {72a565cc-4fa5-4176-bd65-6a1f32d7a2e3}, ! Handle
  Office Activity,                        ! Name
  {5a513322-8d62-4756-bb67-abcb59300656}, ! Schedule Type Limits Name
  {ae5a6ef2-7241-4a78-a72e-981331ac9732}, ! Default Day Schedule Name
  {9ccf38e6-89a9-496d-8494-06df3793073a}, ! Summer Design Day Schedule Name
  {dfff4a9d-bf59-4d18-a734-b4d52b214748}; ! Winter Design Day Schedule Name

OS:Schedule:Day,
  {ae5a6ef2-7241-4a78-a72e-981331ac9732}, ! Handle
  Office Activity Default Schedule,       ! Name
  {5a513322-8d62-4756-bb67-abcb59300656}, ! Schedule Type Limits Name
  ,                                       ! Interpolate to Timestep
  24,                                     !- Hour 1
  0,                                      !- Minute 1
  132;                                    !- Value Until Time 1

OS:Schedule:Day,
  {9ccf38e6-89a9-496d-8494-06df3793073a}, ! Handle
  Office Activity Summer Design Day,      ! Name
  {5a513322-8d62-4756-bb67-abcb59300656}, ! Schedule Type Limits Name
  ,                                       ! Interpolate to Timestep
  24,                                     !- Hour 1
  0,                                      !- Minute 1
  132;                                    !- Value Until Time 1

OS:Schedule:Day,
  {dfff4a9d-bf59-4d18-a734-b4d52b214748}, ! Handle
  Office Activity Winter Design Day,      ! Name
  {5a513322-8d62-4756-bb67-abcb59300656}, ! Schedule Type Limits Name
  ,                                       ! Interpolate to Timestep
  24,                                     !- Hour 1
  0,                                      !- Minute 1
  132;                                    !- Value Until Time 1

OS:Schedule:Ruleset,
  {f67a7048-7ea7-4a6f-871d-4765b71d0d35}, ! Handle
  Office Bldg Light,                      ! Name
  {f3ddfa5e-5cfa-48d7-9c7c-ff0ef397057a}, ! Schedule Type Limits Name
  {9e290ba5-06d8-4764-8812-222d4ddd38c4}, ! Default Day Schedule Name
  {c295c38b-d757-4c25-927c-6bb35d6d4f63}, ! Summer Design Day Schedule Name
  {3c888cc9-91e1-4e3f-9e1d-98040d2232bc}; ! Winter Design Day Schedule Name

OS:Schedule:Day,
  {9e290ba5-06d8-4764-8812-222d4ddd38c4}, ! Handle
  Office Bldg Light Default Schedule,     ! Name
  {f3ddfa5e-5cfa-48d7-9c7c-ff0ef397057a}, ! Schedule Type Limits Name
  ,                                       ! Interpolate to Timestep
  5,                                      !- Hour 1
  0,                                      !- Minute 1
  0.05,                                   !- Value Until Time 1
  7,                                      !- Hour 2
  0,                                      !- Minute 2
  0.1,                                    !- Value Until Time 2
  8,                                      !- Hour 3
  0,                                      !- Minute 3
  0.3,                                    !- Value Until Time 3
  17,                                     !- Hour 4
  0,                                      !- Minute 4
  0.9,                                    !- Value Until Time 4
  18,                                     !- Hour 5
  0,                                      !- Minute 5
  0.7,                                    !- Value Until Time 5
  20,                                     !- Hour 6
  0,                                      !- Minute 6
  0.5,                                    !- Value Until Time 6
  22,                                     !- Hour 7
  0,                                      !- Minute 7
  0.3,                                    !- Value Until Time 7
  23,                                     !- Hour 8
  0,                                      !- Minute 8
  0.1,                                    !- Value Until Time 8
  24,                                     !- Hour 9
  0,                                      !- Minute 9
  0.05;                                   !- Value Until Time 9

OS:Schedule:Day,
  {c295c38b-d757-4c25-927c-6bb35d6d4f63}, ! Handle
  Office Bldg Light Summer Design Day,    ! Name
  {f3ddfa5e-5cfa-48d7-9c7c-ff0ef397057a}, ! Schedule Type Limits Name
  ,                                       ! Interpolate to Timestep
  24,                                     ! Hour 1
  0,                                      ! Minute 1
  1;                                      ! Value Until Time 1

OS:Schedule:Day,
  {3c888cc9-91e1-4e3f-9e1d-98040d2232bc}, ! Handle
  Office Bldg Light Winter Design Day,    ! Name
  {f3ddfa5e-5cfa-48d7-9c7c-ff0ef397057a}, ! Schedule Type Limits Name
  ,                                       ! Interpolate to Timestep
  24,                                     ! Hour 1
  0,                                      ! Minute 1
  0;                                      ! Value Until Time 1

OS:Schedule:Rule,
  {5dc98878-5596-43a2-a26f-32222539e518}, ! Handle
  Office Bldg Light Rule 1,               ! Name
  {f67a7048-7ea7-4a6f-871d-4765b71d0d35}, ! Schedule Ruleset Name
  0,                                      ! Rule Order
  {53fe083a-3ed6-461d-9c2a-48063d167b6e}, ! Day Schedule Name
  Yes,                                    ! Apply Sunday
  No,                                     ! Apply Monday
  No,                                     ! Apply Tuesday
  No,                                     ! Apply Wednesday
  No,                                     ! Apply Thursday
  No,                                     ! Apply Friday
  No,                                     ! Apply Saturday
  ,                                       ! Apply Holiday
  DateRange,                              ! Date Specification Type
  1,                                      ! Start Month
  1,                                      ! Start Day
  12,                                     ! End Month
  31;                                     ! End Day

OS:Schedule:Rule,
  {0274842d-d622-4552-b759-08d46c488ada}, ! Handle
  Office Bldg Light Rule 2,               ! Name
  {f67a7048-7ea7-4a6f-871d-4765b71d0d35}, ! Schedule Ruleset Name
  1,                                      ! Rule Order
  {eb8f7c30-75b1-4f8b-9cfc-654bcbfca300}, ! Day Schedule Name
  No,                                     ! Apply Sunday
  No,                                     ! Apply Monday
  No,                                     ! Apply Tuesday
  No,                                     ! Apply Wednesday
  No,                                     ! Apply Thursday
  No,                                     ! Apply Friday
  Yes,                                    ! Apply Saturday
  ,                                       ! Apply Holiday
  DateRange,                              ! Date Specification Type
  1,                                      ! Start Month
  1,                                      ! Start Day
  12,                                     ! End Month
  31;                                     ! End Day

OS:Schedule:Day,
  {53fe083a-3ed6-461d-9c2a-48063d167b6e}, ! Handle
  Office Bldg Light Rule 1 Day Schedule,  ! Name
  {f3ddfa5e-5cfa-48d7-9c7c-ff0ef397057a}, ! Schedule Type Limits Name
  ,                                       ! Interpolate to Timestep
  24,                                     ! Hour 1
  0,                                      ! Minute 1
  0.050000000000000003;                   ! Value Until Time 1

OS:Schedule:Day,
  {eb8f7c30-75b1-4f8b-9cfc-654bcbfca300}, ! Handle
  Office Bldg Light Rule 2 Day Schedule,  ! Name
  {f3ddfa5e-5cfa-48d7-9c7c-ff0ef397057a}, ! Schedule Type Limits Name
  ,                                       ! Interpolate to Timestep
  6,                                      ! Hour 1
  0,                                      ! Minute 1
  0.050000000000000003,                   ! Value Until Time 1
  8,                                      ! Hour 2
  0,                                      ! Minute 2
  0.10000000000000001,                    ! Value Until Time 2
  14,                                     ! Hour 3
  0,                                      ! Minute 3
  0.5,                                    ! Value Until Time 3
  17,                                     ! Hour 4
  0,                                      ! Minute 4
  0.14999999999999999,                    ! Value Until Time 4
  24,                                     ! Hour 5
  0,                                      ! Minute 5
  0.050000000000000003;                   ! Value Until Time 5

OS:Schedule:Ruleset,
  {4bbf49fe-8548-4de0-bb08-22f7c539f94a}, ! Handle
  Office Bldg Equip,                      ! Name
  {f3ddfa5e-5cfa-48d7-9c7c-ff0ef397057a}, ! Schedule Type Limits Name
  {9b4bffe3-a0d8-4007-9da2-6f0028a4f417}, ! Default Day Schedule Name
  {fa6a5ed2-645c-4522-b57f-44c53933d95a}, ! Summer Design Day Schedule Name
  {8be5be6a-8569-4873-9611-30dde9370012}; ! Winter Design Day Schedule Name

OS:Schedule:Day,
  {9b4bffe3-a0d8-4007-9da2-6f0028a4f417}, ! Handle
  Office Bldg Equip Default Schedule,     ! Name
  {f3ddfa5e-5cfa-48d7-9c7c-ff0ef397057a}, ! Schedule Type Limits Name
  ,                                       ! Interpolate to Timestep
  8,                                      !- Hour 1
  0,                                      !- Minute 1
  0.4,                                    !- Value Until Time 1
  12,                                     !- Hour 2
  0,                                      !- Minute 2
  0.9,                                    !- Value Until Time 2
  13,                                     !- Hour 3
  0,                                      !- Minute 3
  0.8,                                    !- Value Until Time 3
  17,                                     !- Hour 4
  0,                                      !- Minute 4
  0.9,                                    !- Value Until Time 4
  18,                                     !- Hour 5
  0,                                      !- Minute 5
  0.8,                                    !- Value Until Time 5
  20,                                     !- Hour 6
  0,                                      !- Minute 6
  0.6,                                    !- Value Until Time 6
  22,                                     !- Hour 7
  0,                                      !- Minute 7
  0.5,                                    !- Value Until Time 7
  24,                                     !- Hour 8
  0,                                      !- Minute 8
  0.4;                                    !- Value Until Time 8

OS:Schedule:Day,
  {fa6a5ed2-645c-4522-b57f-44c53933d95a}, ! Handle
  Office Bldg Equip Summer Design Day,    ! Name
  {f3ddfa5e-5cfa-48d7-9c7c-ff0ef397057a}, ! Schedule Type Limits Name
  ,                                       ! Interpolate to Timestep
  24,                                     ! Hour 1
  0,                                      ! Minute 1
  1;                                      ! Value Until Time 1

OS:Schedule:Day,
  {8be5be6a-8569-4873-9611-30dde9370012}, ! Handle
  Office Bldg Equip Winter Design Day,    ! Name
  {f3ddfa5e-5cfa-48d7-9c7c-ff0ef397057a}, ! Schedule Type Limits Name
  ,                                       ! Interpolate to Timestep
  24,                                     ! Hour 1
  0,                                      ! Minute 1
  0;                                      ! Value Until Time 1

OS:Schedule:Rule,
  {062db4c5-6e5f-43c5-bbc7-9fd08035b3f2}, ! Handle
  Office Bldg Equip Rule 1,               ! Name
  {4bbf49fe-8548-4de0-bb08-22f7c539f94a}, ! Schedule Ruleset Name
  0,                                      ! Rule Order
  {d3d8add6-2b25-490d-89d1-0dee79d37bb4}, ! Day Schedule Name
  Yes,                                    ! Apply Sunday
  No,                                     ! Apply Monday
  No,                                     ! Apply Tuesday
  No,                                     ! Apply Wednesday
  No,                                     ! Apply Thursday
  No,                                     ! Apply Friday
  No,                                     ! Apply Saturday
  ,                                       ! Apply Holiday
  DateRange,                              ! Date Specification Type
  1,                                      ! Start Month
  1,                                      ! Start Day
  12,                                     ! End Month
  31;                                     ! End Day

OS:Schedule:Rule,
  {7b1dd1f3-3bb5-4bf9-8763-6387a6c07edf}, ! Handle
  Office Bldg Equip Rule 2,               ! Name
  {4bbf49fe-8548-4de0-bb08-22f7c539f94a}, ! Schedule Ruleset Name
  1,                                      ! Rule Order
  {4881cbe6-0e9d-48eb-a466-0b65374034cf}, ! Day Schedule Name
  No,                                     ! Apply Sunday
  No,                                     ! Apply Monday
  No,                                     ! Apply Tuesday
  No,                                     ! Apply Wednesday
  No,                                     ! Apply Thursday
  No,                                     ! Apply Friday
  Yes,                                    ! Apply Saturday
  ,                                       ! Apply Holiday
  DateRange,                              ! Date Specification Type
  1,                                      ! Start Month
  1,                                      ! Start Day
  12,                                     ! End Month
  31;                                     ! End Day

OS:Schedule:Day,
  {d3d8add6-2b25-490d-89d1-0dee79d37bb4}, ! Handle
  Office Bldg Equip Rule 1 Day Schedule,  ! Name
  {f3ddfa5e-5cfa-48d7-9c7c-ff0ef397057a}, ! Schedule Type Limits Name
  ,                                       ! Interpolate to Timestep
  24,                                     ! Hour 1
  0,                                      ! Minute 1
  0.29999999999999999;                    ! Value Until Time 1

OS:Schedule:Day,
  {4881cbe6-0e9d-48eb-a466-0b65374034cf}, ! Handle
  Office Bldg Equip Rule 2 Day Schedule,  ! Name
  {f3ddfa5e-5cfa-48d7-9c7c-ff0ef397057a}, ! Schedule Type Limits Name
  ,                                       ! Interpolate to Timestep
  6,                                      ! Hour 1
  0,                                      ! Minute 1
  0.29999999999999999,                    ! Value Until Time 1
  8,                                      ! Hour 2
  0,                                      ! Minute 2
  0.40000000000000002,                    ! Value Until Time 2
  14,                                     ! Hour 3
  0,                                      ! Minute 3
  0.5,                                    ! Value Until Time 3
  17,                                     ! Hour 4
  0,                                      ! Minute 4
  0.34999999999999998,                    ! Value Until Time 4
  24,                                     ! Hour 5
  0,                                      ! Minute 5
  0.29999999999999999;                    ! Value Until Time 5

OS:Schedule:Ruleset,
  {3eeee99a-b2ae-4e73-806c-a66237dea362}, ! Handle
  Office Infil Quarter On,                ! Name
  {f3ddfa5e-5cfa-48d7-9c7c-ff0ef397057a}, ! Schedule Type Limits Name
  {c5319173-719c-4f15-ac2f-4386619efaac}, ! Default Day Schedule Name
  {2fd16409-fe25-4cc3-a86e-7fab77492689}, ! Summer Design Day Schedule Name
  {13b32c08-5412-41e8-bf6d-bb200b0afcfa}; ! Winter Design Day Schedule Name

OS:Schedule:Day,
  {c5319173-719c-4f15-ac2f-4386619efaac}, ! Handle
  Office Infil Quarter On Default Schedule, ! Name
  {f3ddfa5e-5cfa-48d7-9c7c-ff0ef397057a}, ! Schedule Type Limits Name
  ,                                       ! Interpolate to Timestep
  6,                                      !- Hour 1
  0,                                      !- Minute 1
  1,                                      !- Value Until Time 1
  22,                                     !- Hour 2
  0,                                      !- Minute 2
  0.25,                                   !- Value Until Time 2
  24,                                     !- Hour 3
  0,                                      !- Minute 3
  1;                                      !- Value Until Time 3

OS:Schedule:Day,
  {2fd16409-fe25-4cc3-a86e-7fab77492689}, ! Handle
  Office Infil Quarter On Summer Design Day, ! Name
  {f3ddfa5e-5cfa-48d7-9c7c-ff0ef397057a}, ! Schedule Type Limits Name
  ,                                       ! Interpolate to Timestep
  6,                                      ! Hour 1
  0,                                      ! Minute 1
  1,                                      ! Value Until Time 1
  22,                                     ! Hour 2
  0,                                      ! Minute 2
  0.25,                                   ! Value Until Time 2
  24,                                     ! Hour 3
  0,                                      ! Minute 3
  1;                                      ! Value Until Time 3

OS:Schedule:Day,
  {13b32c08-5412-41e8-bf6d-bb200b0afcfa}, ! Handle
  Office Infil Quarter On Winter Design Day, ! Name
  {f3ddfa5e-5cfa-48d7-9c7c-ff0ef397057a}, ! Schedule Type Limits Name
  ,                                       ! Interpolate to Timestep
  6,                                      ! Hour 1
  0,                                      ! Minute 1
  1,                                      ! Value Until Time 1
  18,                                     ! Hour 2
  0,                                      ! Minute 2
  0.25,                                   ! Value Until Time 2
  24,                                     ! Hour 3
  0,                                      ! Minute 3
  1;                                      ! Value Until Time 3

OS:Schedule:Rule,
  {7df15464-3292-457c-9b2a-0d72dfaabff9}, ! Handle
  Office Infil Quarter On Rule 1,         ! Name
  {3eeee99a-b2ae-4e73-806c-a66237dea362}, ! Schedule Ruleset Name
  0,                                      ! Rule Order
  {35e9c3ab-9f97-4c3f-afa7-de496bed7156}, ! Day Schedule Name
  Yes,                                    ! Apply Sunday
  No,                                     ! Apply Monday
  No,                                     ! Apply Tuesday
  No,                                     ! Apply Wednesday
  No,                                     ! Apply Thursday
  No,                                     ! Apply Friday
  No,                                     ! Apply Saturday
  ,                                       ! Apply Holiday
  DateRange,                              ! Date Specification Type
  1,                                      ! Start Month
  1,                                      ! Start Day
  12,                                     ! End Month
  31;                                     ! End Day

OS:Schedule:Rule,
  {c78b52d1-d76d-4c53-97cf-6d9a884774e1}, ! Handle
  Office Infil Quarter On Rule 2,         ! Name
  {3eeee99a-b2ae-4e73-806c-a66237dea362}, ! Schedule Ruleset Name
  1,                                      ! Rule Order
  {f5f11886-7910-45e7-b34f-049f8f8c9646}, ! Day Schedule Name
  No,                                     ! Apply Sunday
  No,                                     ! Apply Monday
  No,                                     ! Apply Tuesday
  No,                                     ! Apply Wednesday
  No,                                     ! Apply Thursday
  No,                                     ! Apply Friday
  Yes,                                    ! Apply Saturday
  ,                                       ! Apply Holiday
  DateRange,                              ! Date Specification Type
  1,                                      ! Start Month
  1,                                      ! Start Day
  12,                                     ! End Month
  31;                                     ! End Day

OS:Schedule:Day,
  {35e9c3ab-9f97-4c3f-afa7-de496bed7156}, ! Handle
  Office Infil Quarter On Rule 1 Day Schedule, ! Name
  {f3ddfa5e-5cfa-48d7-9c7c-ff0ef397057a}, ! Schedule Type Limits Name
  ,                                       ! Interpolate to Timestep
  24,                                     ! Hour 1
  0,                                      ! Minute 1
  1;                                      ! Value Until Time 1

OS:Schedule:Day,
  {f5f11886-7910-45e7-b34f-049f8f8c9646}, ! Handle
  Office Infil Quarter On Rule 2 Day Schedule, ! Name
  {f3ddfa5e-5cfa-48d7-9c7c-ff0ef397057a}, ! Schedule Type Limits Name
  ,                                       ! Interpolate to Timestep
  6,                                      ! Hour 1
  0,                                      ! Minute 1
  1,                                      ! Value Until Time 1
  18,                                     ! Hour 2
  0,                                      ! Minute 2
  0.25,                                   ! Value Until Time 2
  24,                                     ! Hour 3
  0,                                      ! Minute 3
  1;                                      ! Value Until Time 3

OS:ScheduleTypeLimits,
  {f3ddfa5e-5cfa-48d7-9c7c-ff0ef397057a}, ! Handle
  Fraction,                               ! Name