
OS:Version,
  {e2763abd-4e66-4243-b9b4-cb1af534e627}, !- Handle
  1.9.0;                                  !- Version Identifier

OS:Facility,
  {be356f6f-be47-4ddd-90f9-9df08f28a386}; !- Handle

OS:Building,
  {fb36f87e-2dcf-4a16-9965-9e71d41aaf01}, !- Handle
  Building 1,                             !- Name
  ,                                       !- Building Sector Type
  ,                                       !- North Axis {deg}
  ,                                       !- Nominal Floor to Floor Height {m}
  ,                                       !- Space Type Name
  ,                                       !- Default Construction Set Name
  ;                                       !- Default Schedule Set Name

OS:BuildingStory,
  {c1b04e7f-4e44-45d4-8dc4-c1d4d5b74efb}, !- Handle
  Level 1,                                !- Name
  ,                                       !- Nominal Z Coordinate {m}
  ,                                       !- Nominal Floor to Floor Height {m}
  ,                                       !- Default Construction Set Name
  ,                                       !- Default Schedule Set Name
  ;                                       !- Group Rendering Name

OS:BuildingStory,
  {2d49af61-168a-4da5-b760-c96c95c06c24}, !- Handle
  Level 1 Plenum,                         !- Name
  ,                                       !- Nominal Z Coordinate {m}
  2.7342,                                 !- Nominal Floor to Floor Height {m}
  ,                                       !- Default Construction Set Name
  ,                                       !- Default Schedule Set Name
  ;                                       !- Group Rendering Name

OS:BuildingStory,
  {8610c99f-baab-4e53-be21-45d3af051f74}, !- Handle
  Level 2,                                !- Name
  ,                                       !- Nominal Z Coordinate {m}
  3.9624,                                 !- Nominal Floor to Floor Height {m}
  ,                                       !- Default Construction Set Name
  ,                                       !- Default Schedule Set Name
  ;                                       !- Group Rendering Name

OS:BuildingStory,
  {b216be08-9a8d-47f1-852a-bb4f7ef9702b}, !- Handle
  Level 2 Plenum,                         !- Name
  ,                                       !- Nominal Z Coordinate {m}
  6.7056,                                 !- Nominal Floor to Floor Height {m}
  ,                                       !- Default Construction Set Name
  ,                                       !- Default Schedule Set Name
  ;                                       !- Group Rendering Name

OS:BuildingStory,
  {6ff46f34-dc24-4ad1-a4da-cdf62ba74e9f}, !- Handle
  Level 3,                                !- Name
  ,                                       !- Nominal Z Coordinate {m}
  7.9248,                                 !- Nominal Floor to Floor Height {m}
  ,                                       !- Default Construction Set Name
  ,                                       !- Default Schedule Set Name
  ;                                       !- Group Rendering Name

OS:BuildingStory,
  {bb7f6cad-ffbd-40ea-82fb-d2ac667382d2}, !- Handle
  Level 3 Plenum,                         !- Name
  ,                                       !- Nominal Z Coordinate {m}
  10.668,                                 !- Nominal Floor to Floor Height {m}
  ,                                       !- Default Construction Set Name
  ,                                       !- Default Schedule Set Name
  ;                                       !- Group Rendering Name

OS:BuildingStory,
  {7b2b6bc2-de4b-4fe4-80e1-28700d0139c8}, !- Handle
  Roof Level,                             !- Name
  ,                                       !- Nominal Z Coordinate {m}
  11.8872,                                !- Nominal Floor to Floor Height {m}
  ,                                       !- Default Construction Set Name
  ,                                       !- Default Schedule Set Name
  ;                                       !- Group Rendering Name

OS:Space,
  {2655aad3-5bde-45af-b29b-0217394b41f8}, !- Handle
  Space_zone_0,                           !- Name
  ,                                       !- Space Type Name
  ,                                       !- Default Construction Set Name
  ,                                       !- Default Schedule Set Name
  ,                                       !- Direction of Relative North {deg}
  ,                                       !- X Origin {m}
  ,                                       !- Y Origin {m}
  ,                                       !- Z Origin {m}
  {c1b04e7f-4e44-45d4-8dc4-c1d4d5b74efb}, !- Building Story Name
  {80454adb-2d2b-4778-83b7-d5bb54b512c5}; !- Thermal Zone Name

OS:Surface,
  {deae592f-870b-405f-b836-2a9e21e10ccb}, !- Handle
  Surface 1,                              !- Name
  Floor,                                  !- Surface Type
  ,                                       !- Construction Name
  {2655aad3-5bde-45af-b29b-0217394b41f8}, !- Space Name
  Ground,                                 !- Outside Boundary Condition
  ,                                       !- Outside Boundary Condition Object
  NoSun,                                  !- Sun Exposure
  NoWind,                                 !- Wind Exposure
  ,                                       !- View Factor to Ground
  ,                                       !- Number of Vertices
  0, 0, 0,                                !- X,Y,Z Vertex 1 {m}
  4.5732, 4.5732, 0,                      !- X,Y,Z Vertex 2 {m}
  45.337799, 4.5732, 0,                   !- X,Y,Z Vertex 3 {m}
  49.910999, 0, 0;                        !- X,Y,Z Vertex 4 {m}

OS:Surface,
  {7a207e04-d866-4452-99ea-5f5416667719}, !- Handle
  Surface 2,                              !- Name
  RoofCeiling,                            !- Surface Type
  ,                                       !- Construction Name
  {2655aad3-5bde-45af-b29b-0217394b41f8}, !- Space Name
  Outdoors,                               !- Outside Boundary Condition
  ,                                       !- Outside Boundary Condition Object
  SunExposed,                             !- Sun Exposure
  WindExposed,                            !- Wind Exposure
  ,                                       !- View Factor to Ground
  ,                                       !- Number of Vertices
  0, 0, 2.7432,                           !- X,Y,Z Vertex 1 {m}
  49.910999, 0, 2.7432,                   !- X,Y,Z Vertex 2 {m}
  45.337799, 4.5732, 2.7432,              !- X,Y,Z Vertex 3 {m}
  4.5732, 4.5732, 2.7432;                 !- X,Y,Z Vertex 4 {m}

OS:Surface,
  {b19eb870-90c3-4684-9361-a511e5e59bb5}, !- Handle
  Surface 3,                              !- Name
  Wall,                                   !- Surface Type
  ,                                       !- Construction Name
  {2655aad3-5bde-45af-b29b-0217394b41f8}, !- Space Name
  Surface,                                !- Outside Boundary Condition
  {9bc4c8d4-3dc6-4ce7-8146-50d43571b384}, !- Outside Boundary Condition Object
  NoSun,                                  !- Sun Exposure
  NoWind,                                 !- Wind Exposure
  ,                                       !- View Factor to Ground
  ,                                       !- Number of Vertices
  4.5732, 4.5732, 0,                      !- X,Y,Z Vertex 1 {m}
  0, 0, 0,                                !- X,Y,Z Vertex 2 {m}
  0, 0, 2.7432,                           !- X,Y,Z Vertex 3 {m}
  4.5732, 4.5732, 2.7432;                 !- X,Y,Z Vertex 4 {m}

OS:Surface,
  {ba946bf2-9ca9-4b9a-b6af-7dc359334016}, !- Handle
  Surface 4,                              !- Name
  Wall,                                   !- Surface Type
  ,                                       !- Construction Name
  {2655aad3-5bde-45af-b29b-0217394b41f8}, !- Space Name
  Outdoors,                               !- Outside Boundary Condition
  ,                                       !- Outside Boundary Condition Object
  SunExposed,                             !- Sun Exposure
  WindExposed,                            !- Wind Exposure
  ,                                       !- View Factor to Ground
  ,                                       !- Number of Vertices
  0, 0, 0,                                !- X,Y,Z Vertex 1 {m}
  49.910999, 0, 0,                        !- X,Y,Z Vertex 2 {m}
  49.910999, 0, 2.7432,                   !- X,Y,Z Vertex 3 {m}
  0, 0, 2.7432;                           !- X,Y,Z Vertex 4 {m}

OS:SubSurface,
  {2a68a32d-85e5-4535-b02e-7aefc9853525}, !- Handle
  Sub Surface 1,                          !- Name
  FixedWindow,                            !- Sub Surface Type
  ,                                       !- Construction Name
  {ba946bf2-9ca9-4b9a-b6af-7dc359334016}, !- Surface Name
  ,                                       !- Outside Boundary Condition Object
  ,                                       !- View Factor to Ground
  ,                                       !- Shading Control Name
  ,                                       !- Frame and Divider Name
  ,                                       !- Multiplier
  ,                                       !- Number of Vertices
  0.49911, 0, 0.91472,                    !- X,Y,Z Vertex 1 {m}
  49.411888, 0, 0.91472,                  !- X,Y,Z Vertex 2 {m}
  49.411888, 0, 2.532088,                 !- X,Y,Z Vertex 3 {m}
  0.49911, 0, 2.532088;                   !- X,Y,Z Vertex 4 {m}

OS:Surface,
  {cc1fd3dc-5d97-4a72-8a48-e013055d4f2e}, !- Handle
  Surface 5,                              !- Name
  Wall,                                   !- Surface Type
  ,                                       !- Construction Name
  {2655aad3-5bde-45af-b29b-0217394b41f8}, !- Space Name
  Surface,                                !- Outside Boundary Condition
  {05179159-0eeb-4afc-bda1-f4cc0b9d9fc0}, !- Outside Boundary Condition Object
  NoSun,                                  !- Sun Exposure
  NoWind,                                 !- Wind Exposure
  ,                                       !- View Factor to Ground
  ,                                       !- Number of Vertices
  49.910999, 0, 0,                        !- X,Y,Z Vertex 1 {m}
  45.337799, 4.5732, 0,                   !- X,Y,Z Vertex 2 {m}
  45.337799, 4.5732, 2.7432,              !- X,Y,Z Vertex 3 {m}
  49.910999, 0, 2.7432;                   !- X,Y,Z Vertex 4 {m}

OS:Surface,
  {825fec76-7958-495d-81b7-fded9bb7b205}, !- Handle
  Surface 6,                              !- Name
  Wall,                                   !- Surface Type
  ,                                       !- Construction Name
  {2655aad3-5bde-45af-b29b-0217394b41f8}, !- Space Name
  Surface,                                !- Outside Boundary Condition
  {4f9bb1cc-481f-46d7-bffd-4865ac74c94e}, !- Outside Boundary Condition Object
  NoSun,                                  !- Sun Exposure
  NoWind,                                 !- Wind Exposure
  ,                                       !- View Factor to Ground
  ,                                       !- Number of Vertices
  45.337799, 4.5732, 0,                   !- X,Y,Z Vertex 1 {m}
  4.5732, 4.5732, 0,                      !- X,Y,Z Vertex 2 {m}
  4.5732, 4.5732, 2.7432,                 !- X,Y,Z Vertex 3 {m}
  45.337799, 4.5732, 2.7432;              !- X,Y,Z Vertex 4 {m}

OS:Space,
  {3e1c81f9-800c-4414-8c39-029497bac231}, !- Handle
  Space_zone_1,                           !- Name
  ,                                       !- Space Type Name
  ,                                       !- Default Construction Set Name
  ,                                       !- Default Schedule Set Name
  ,                                       !- Direction of Relative North {deg}
  ,                                       !- X Origin {m}
  ,                                       !- Y Origin {m}
  ,                                       !- Z Origin {m}
  {c1b04e7f-4e44-45d4-8dc4-c1d4d5b74efb}, !- Building Story Name
  {4b766bf6-e90a-48a7-984d-18cab35b9db9}; !- Thermal Zone Name

OS:Surface,
  {6368192b-e5d6-4c22-8ea1-d328e0ac3dd6}, !- Handle
  Surface 7,                              !- Name
  Floor,                                  !- Surface Type
  ,                                       !- Construction Name
  {3e1c81f9-800c-4414-8c39-029497bac231}, !- Space Name
  Ground,                                 !- Outside Boundary Condition
  ,                                       !- Outside Boundary Condition Object
  NoSun,                                  !- Sun Exposure
  NoWind,                                 !- Wind Exposure
  ,                                       !- View Factor to Ground
  ,                                       !- Number of Vertices
  45.337799, 4.5732, 0,                   !- X,Y,Z Vertex 1 {m}
  45.337799, 28.7006, 0,                  !- X,Y,Z Vertex 2 {m}
  49.910999, 33.2738, 0,                  !- X,Y,Z Vertex 3 {m}
  49.910999, 0, 0;                        !- X,Y,Z Vertex 4 {m}

OS:Surface,
  {7921a489-cb9d-4976-9ff0-568bef0f3611}, !- Handle
  Surface 8,                              !- Name
  RoofCeiling,                            !- Surface Type
  ,                                       !- Construction Name
  {3e1c81f9-800c-4414-8c39-029497bac231}, !- Space Name
  Outdoors,                               !- Outside Boundary Condition
  ,                                       !- Outside Boundary Condition Object
  SunExposed,                             !- Sun Exposure
  WindExposed,                            !- Wind Exposure
  ,                                       !- View Factor to Ground
  ,                                       !- Number of Vertices
  45.337799, 4.5732, 2.7432,              !- X,Y,Z Vertex 1 {m}
  49.910999, 0, 2.7432,                   !- X,Y,Z Vertex 2 {m}
  49.910999, 33.2738, 2.7432,             !- X,Y,Z Vertex 3 {m}
  45.337799, 28.7006, 2.7432;             !- X,Y,Z Vertex 4 {m}

OS:Surface,
  {7536b5ca-5604-471a-93db-3c2f9f77bd3f}, !- Handle
  Surface 9,                              !- Name
  Wall,                                   !- Surface Type
  ,                                       !- Construction Name
  {3e1c81f9-800c-4414-8c39-029497bac231}, !- Space Name
  Surface,                                !- Outside Boundary Condition
  {628c9513-8377-4ead-a75b-580086fa51c2}, !- Outside Boundary Condition Object
  NoSun,                                  !- Sun Exposure
  NoWind,                                 !- Wind Exposure
  ,                                       !- View Factor to Ground
  ,                                       !- Number of Vertices
  45.337799, 28.7006, 0,                  !- X,Y,Z Vertex 1 {m}
  45.337799, 4.5732, 0,                   !- X,Y,Z Vertex 2 {m}
  45.337799, 4.5732, 2.7432,              !- X,Y,Z Vertex 3 {m}
  45.337799, 28.7006, 2.7432;             !- X,Y,Z Vertex 4 {m}

OS:Surface,
  {05179159-0eeb-4afc-bda1-f4cc0b9d9fc0}, !- Handle
  Surface 10,                             !- Name
  Wall,                                   !- Surface Type
  ,                                       !- Construction Name
  {3e1c81f9-800c-4414-8c39-029497bac231}, !- Space Name
  Surface,                                !- Outside Boundary Condition
  {cc1fd3dc-5d97-4a72-8a48-e013055d4f2e}, !- Outside Boundary Condition Object
  NoSun,                                  !- Sun Exposure
  NoWind,                                 !- Wind Exposure
  ,                                       !- View Factor to Ground
  ,                                       !- Number of Vertices
  45.337799, 4.5732, 0,                   !- X,Y,Z Vertex 1 {m}
  49.910999, 0, 0,                        !- X,Y,Z Vertex 2 {m}
  49.910999, 0, 2.7432,                   !- X,Y,Z Vertex 3 {m}
  45.337799, 4.5732, 2.7432;              !- X,Y,Z Vertex 4 {m}

OS:Surface,
  {f6076394-1518-438b-bc56-3cf3e4b7fada}, !- Handle
  Surface 11,                             !- Name
  Wall,                                   !- Surface Type
  ,                                       !- Construction Name
  {3e1c81f9-800c-4414-8c39-029497bac231}, !- Space Name
  Outdoors,                               !- Outside Boundary Condition
  ,                                       !- Outside Boundary Condition Object
  SunExposed,                             !- Sun Exposure
  WindExposed,                            !- Wind Exposure
  ,                                       !- View Factor to Ground
  ,                                       !- Number of Vertices
  49.910999, 0, 0,                        !- X,Y,Z Vertex 1 {m}
  49.910999, 33.2738, 0,                  !- X,Y,Z Vertex 2 {m}
  49.910999, 33.2738, 2.7432,             !- X,Y,Z Vertex 3 {m}
  49.910999, 0, 2.7432;                   !- X,Y,Z Vertex 4 {m}

OS:SubSurface,
  {70d5b11a-b8e6-4a42-bab0-ace7eb60146d}, !- Handle
  Sub Surface 2,                          !- Name
  FixedWindow,                            !- Sub Surface Type
  ,                                       !- Construction Name
  {f6076394-1518-438b-bc56-3cf3e4b7fada}, !- Surface Name
  ,                                       !- Outside Boundary Condition Object
  ,                                       !- View Factor to Ground
  ,                                       !- Shading Control Name
  ,                                       !- Frame and Divider Name
  ,                                       !- Multiplier
  ,                                       !- Number of Vertices
  49.910999, 0.332738, 0.91472,           !- X,Y,Z Vertex 1 {m}
  49.910999, 32.941063, 0.91472,          !- X,Y,Z Vertex 2 {m}
  49.910999, 32.941063, 2.532088,         !- X,Y,Z Vertex 3 {m}
  49.910999, 0.332738, 2.532088;          !- X,Y,Z Vertex 4 {m}

OS:Surface,
  {cb76679c-a715-4e15-86e4-bdf23ea02922}, !- Handle
  Surface 12,                             !- Name
  Wall,                                   !- Surface Type
  ,                                       !- Construction Name
  {3e1c81f9-800c-4414-8c39-029497bac231}, !- Space Name
  Surface,                                !- Outside Boundary Condition
  {d8b726bf-ca40-431b-a0c1-12353891f2a7}, !- Outside Boundary Condition Object
  NoSun,                                  !- Sun Exposure
  NoWind,                                 !- Wind Exposure
  ,                                       !- View Factor to Ground
  ,                                       !- Number of Vertices
  49.910999, 33.2738, 0,                  !- X,Y,Z Vertex 1 {m}
  45.337799, 28.7006, 0,                  !- X,Y,Z Vertex 2 {m}
  45.337799, 28.7006, 2.7432,             !- X,Y,Z Vertex 3 {m}
  49.910999, 33.2738, 2.7432;             !- X,Y,Z Vertex 4 {m}

OS:Space,
  {86680a88-eabe-4e66-b8ce-ccd7f6bb1ca6}, !- Handle
  Space_zone_2,                           !- Name
  ,                                       !- Space Type Name
  ,                                       !- Default Construction Set Name
  ,                                       !- Default Schedule Set Name
  ,                                       !- Direction of Relative North {deg}
  ,                                       !- X Origin {m}
  ,                                       !- Y Origin {m}
  ,                                       !- Z Origin {m}
  {c1b04e7f-4e44-45d4-8dc4-c1d4d5b74efb}, !- Building Story Name
  {850d1b60-4dc2-4c7f-8a0b-495b8d86d2ef}; !- Thermal Zone Name

OS:Surface,
  {165451ee-4214-4d68-88fa-da44c5219812}, !- Handle
  Surface 13,                             !- Name
  Floor,                                  !- Surface Type
  ,                                       !- Construction Name
  {86680a88-eabe-4e66-b8ce-ccd7f6bb1ca6}, !- Space Name
  Ground,                                 !- Outside Boundary Condition
  ,                                       !- Outside Boundary Condition Object
  NoSun,                                  !- Sun Exposure
  NoWind,                                 !- Wind Exposure
  ,                                       !- View Factor to Ground
  ,                                       !- Number of Vertices
  4.5732, 28.7006, 0,                     !- X,Y,Z Vertex 1 {m}
  0, 33.2738, 0,                          !- X,Y,Z Vertex 2 {m}
  49.910999, 33.2738, 0,                  !- X,Y,Z Vertex 3 {m}
  45.337799, 28.7006, 0;                  !- X,Y,Z Vertex 4 {m}

OS:Surface,
  {395c022a-15de-41d0-b80c-786e4c8ff5ff}, !- Handle
  Surface 14,                             !- Name
  RoofCeiling,                            !- Surface Type
  ,                                       !- Construction Name
  {86680a88-eabe-4e66-b8ce-ccd7f6bb1ca6}, !- Space Name
  Outdoors,                               !- Outside Boundary Condition
  ,                                       !- Outside Boundary Condition Object
  SunExposed,                             !- Sun Exposure
  WindExposed,                            !- Wind Exposure
  ,                                       !- View Factor to Ground
  ,                                       !- Number of Vertices
  4.5732, 28.7006, 2.7432,                !- X,Y,Z Vertex 1 {m}
  45.337799, 28.7006, 2.7432,             !- X,Y,Z Vertex 2 {m}
  49.910999, 33.2738, 2.7432,             !- X,Y,Z Vertex 3 {m}
  0, 33.2738, 2.7432;                     !- X,Y,Z Vertex 4 {m}

OS:Surface,
  {5f780a37-ecc5-457f-9dfd-148de69aefbf}, !- Handle
  Surface 15,                             !- Name
  Wall,                                   !- Surface Type
  ,                                       !- Construction Name
  {86680a88-eabe-4e66-b8ce-ccd7f6bb1ca6}, !- Space Name
  Surface,                                !- Outside Boundary Condition
  {da02a9ca-66b7-4638-8541-ce3f97ec435c}, !- Outside Boundary Condition Object
  NoSun,                                  !- Sun Exposure
  NoWind,                                 !- Wind Exposure
  ,                                       !- View Factor to Ground
  ,                                       !- Number of Vertices
  0, 33.2738, 0,                          !- X,Y,Z Vertex 1 {m}
  4.5732, 28.7006, 0,                     !- X,Y,Z Vertex 2 {m}
  4.5732, 28.7006, 2.7432,                !- X,Y,Z Vertex 3 {m}
  0, 33.2738, 2.7432;                     !- X,Y,Z Vertex 4 {m}

OS:Surface,
  {842e90b4-220f-4a75-bbc6-11c6438bc3ed}, !- Handle
  Surface 16,                             !- Name
  Wall,                                   !- Surface Type
  ,                                       !- Construction Name
  {86680a88-eabe-4e66-b8ce-ccd7f6bb1ca6}, !- Space Name
  Surface,                                !- Outside Boundary Condition
  {7f45b022-16f1-4425-ae13-bf4fec83ae25}, !- Outside Boundary Condition Object
  NoSun,                                  !- Sun Exposure
  NoWind,                                 !- Wind Exposure
  ,                                       !- View Factor to Ground
  ,                                       !- Number of Vertices
  4.5732, 28.7006, 0,                     !- X,Y,Z Vertex 1 {m}
  45.337799, 28.7006, 0,                  !- X,Y,Z Vertex 2 {m}
  45.337799, 28.7006, 2.7432,             !- X,Y,Z Vertex 3 {m}
  4.5732, 28.7006, 2.7432;                !- X,Y,Z Vertex 4 {m}

OS:Surface,
  {d8b726bf-ca40-431b-a0c1-12353891f2a7}, !- Handle
  Surface 17,                             !- Name
  Wall,                                   !- Surface Type
  ,                                       !- Construction Name
  {86680a88-eabe-4e66-b8ce-ccd7f6bb1ca6}, !- Space Name
  Surface,                                !- Outside Boundary Condition
  {cb76679c-a715-4e15-86e4-bdf23ea02922}, !- Outside Boundary Condition Object
  NoSun,                                  !- Sun Exposure
  NoWind,                                 !- Wind Exposure
  ,                                       !- View Factor to Ground
  ,                                       !- Number of Vertices
  45.337799, 28.7006, 0,                  !- X,Y,Z Vertex 1 {m}
  49.910999, 33.2738, 0,                  !- X,Y,Z Vertex 2 {m}
  49.910999, 33.2738, 2.7432,             !- X,Y,Z Vertex 3 {m}
  45.337799, 28.7006, 2.7432;             !- X,Y,Z Vertex 4 {m}

OS:Surface,
  {2b1c42c2-4890-4598-abe7-d4b22adef583}, !- Handle
  Surface 18,                             !- Name
  Wall,                                   !- Surface Type
  ,                                       !- Construction Name
  {86680a88-eabe-4e66-b8ce-ccd7f6bb1ca6}, !- Space Name
  Outdoors,                               !- Outside Boundary Condition
  ,                                       !- Outside Boundary Condition Object
  SunExposed,                             !- Sun Exposure
  WindExposed,                            !- Wind Exposure
  ,                                       !- View Factor to Ground
  ,                                       !- Number of Vertices
  49.910999, 33.2738, 0,                  !- X,Y,Z Vertex 1 {m}
  0, 33.2738, 0,                          !- X,Y,Z Vertex 2 {m}
  0, 33.2738, 2.7432,                     !- X,Y,Z Vertex 3 {m}
  49.910999, 33.2738, 2.7432;             !- X,Y,Z Vertex 4 {m}

OS:SubSurface,
  {ea7bdb6a-643d-4f01-9f50-58287107ab8e}, !- Handle
  Sub Surface 3,                          !- Name
  FixedWindow,                            !- Sub Surface Type
  ,                                       !- Construction Name
  {2b1c42c2-4890-4598-abe7-d4b22adef583}, !- Surface Name
  ,                                       !- Outside Boundary Condition Object
  ,                                       !- View Factor to Ground
  ,                                       !- Shading Control Name
  ,                                       !- Frame and Divider Name
  ,                                       !- Multiplier
  ,                                       !- Number of Vertices
  49.411888, 33.2738, 0.91472,            !- X,Y,Z Vertex 1 {m}
  0.49911, 33.2738, 0.91472,              !- X,Y,Z Vertex 2 {m}
  0.49911, 33.2738, 2.532088,             !- X,Y,Z Vertex 3 {m}
  49.411888, 33.2738, 2.532088;           !- X,Y,Z Vertex 4 {m}

OS:Space,
  {61c0789f-17e2-4faa-b158-880550e8f7ea}, !- Handle
  Space_zone_3,                           !- Name
  ,                                       !- Space Type Name
  ,                                       !- Default Construction Set Name
  ,                                       !- Default Schedule Set Name
  ,                                       !- Direction of Relative North {deg}
  ,                                       !- X Origin {m}
  ,                                       !- Y Origin {m}
  ,                                       !- Z Origin {m}
  {c1b04e7f-4e44-45d4-8dc4-c1d4d5b74efb}, !- Building Story Name
  {19afc464-1ca5-4932-ae0d-01023d1b1184}; !- Thermal Zone Name

OS:Surface,
  {3224d531-39d6-4324-994f-492404eab3c8}, !- Handle
  Surface 19,                             !- Name
  Floor,                                  !- Surface Type
  ,                                       !- Construction Name
  {61c0789f-17e2-4faa-b158-880550e8f7ea}, !- Space Name
  Ground,                                 !- Outside Boundary Condition
  ,                                       !- Outside Boundary Condition Object
  NoSun,                                  !- Sun Exposure
  NoWind,                                 !- Wind Exposure
  ,                                       !- View Factor to Ground
  ,                                       !- Number of Vertices
  0, 0, 0,                                !- X,Y,Z Vertex 1 {m}
  0, 33.2738, 0,                          !- X,Y,Z Vertex 2 {m}
  4.5732, 28.7006, 0,                     !- X,Y,Z Vertex 3 {m}
  4.5732, 4.5732, 0;                      !- X,Y,Z Vertex 4 {m}

OS:Surface,
  {3195264c-7201-4f18-8823-19de4dba17c0}, !- Handle
  Surface 20,                             !- Name
  RoofCeiling,                            !- Surface Type
  ,                                       !- Construction Name
  {61c0789f-17e2-4faa-b158-880550e8f7ea}, !- Space Name
  Outdoors,                               !- Outside Boundary Condition
  ,                                       !- Outside Boundary Condition Object
  SunExposed,                             !- Sun Exposure
  WindExposed,                            !- Wind Exposure
  ,                                       !- View Factor to Ground
  ,                                       !- Number of Vertices
  0, 0, 2.7432,                           !- X,Y,Z Vertex 1 {m}
  4.5732, 4.5732, 2.7432,                 !- X,Y,Z Vertex 2 {m}
  4.5732, 28.7006, 2.7432,                !- X,Y,Z Vertex 3 {m}
  0, 33.2738, 2.7432;                     !- X,Y,Z Vertex 4 {m}

OS:Surface,
  {b65c713e-4b0b-4501-b341-b7fc932e5da3}, !- Handle
  Surface 21,                             !- Name
  Wall,                                   !- Surface Type
  ,                                       !- Construction Name
  {61c0789f-17e2-4faa-b158-880550e8f7ea}, !- Space Name
  Outdoors,                               !- Outside Boundary Condition
  ,                                       !- Outside Boundary Condition Object
  SunExposed,                             !- Sun Exposure
  WindExposed,                            !- Wind Exposure
  ,                                       !- View Factor to Ground
  ,                                       !- Number of Vertices
  0, 33.2738, 0,                          !- X,Y,Z Vertex 1 {m}
  0, 0, 0,                                !- X,Y,Z Vertex 2 {m}
  0, 0, 2.7432,                           !- X,Y,Z Vertex 3 {m}
  0, 33.2738, 2.7432;                     !- X,Y,Z Vertex 4 {m}

OS:SubSurface,
  {f3dfadcd-e227-49af-b81c-59d252d0877f}, !- Handle
  Sub Surface 4,                          !- Name
  FixedWindow,                            !- Sub Surface Type
  ,                                       !- Construction Name
  {b65c713e-4b0b-4501-b341-b7fc932e5da3}, !- Surface Name