
OS:Version,
  {690a7477-c166-431f-954c-0aee15c353ee}, !- Handle
  1.12.2;                                 !- Version Identifier

OS:SpaceType,
  {2ccd2108-c0f2-4bc1-95ae-fc6d7af12fe2}, !- Handle
  189.1-2009 - Office - Lobby - CZ4-8,    !- Name
  ,                                       !- Default Construction Set Name
  {3099e8b6-8ccd-4d82-8355-cbe04b17747d}, !- Default Schedule Set Name
  {0408313d-ff54-44fc-b18d-3acec93b09b7}, !- Group Rendering Name
  {6e7b6c93-8e60-4558-90e7-28bb9d5d5cf1}, !- Design Specification Outdoor Air Object Name
  Office,                                 !- Standards Building Type
  Lobby;                                  !- Standards Space Type

OS:DefaultScheduleSet,
  {3099e8b6-8ccd-4d82-8355-cbe04b17747d}, !- Handle
  189.1-2009 - Office - Lobby - CZ4-8 Schedule Set, !- Name
  ,                                       !- Hours of Operation Schedule Name
  {f090a0c2-7b6e-4ef8-a0b9-7bc19530c77c}, !- Number of People Schedule Name
  {df79eaa0-2d8f-467c-8cfa-cfc72a2ec05c}, !- People Activity Level Schedule Name
  {caa71718-a06c-4708-9bb5-8c781d6b6377}, !- Lighting Schedule Name
  {8e98a0d9-d94d-4cd7-bdb4-b30e0aeb1a21}, !- Electric Equipment Schedule Name
  ,                                       !- Gas Equipment Schedule Name
  ,                                       !- Hot Water Equipment Schedule Name
  {8af723a7-d0c6-4d87-8cdf-887ab43e6887}, !- Infiltration Schedule Name
  ,                                       !- Steam Equipment Schedule Name
  ;                                       !- Other Equipment Schedule Name

OS:Rendering:Color,
  {0408313d-ff54-44fc-b18d-3acec93b09b7}, !- Handle
  Rendering Color 23,                     !- Name
  230,                                    !- Rendering Red Value
  157,                                    !- Rendering Green Value
  120;                                    !- Rendering Blue Value

OS:DesignSpecification:OutdoorAir,
  {6e7b6c93-8e60-4558-90e7-28bb9d5d5cf1}, !- Handle
  189.1-2009 - Office - Lobby - CZ4-8 Ventilation, !- Name
  Sum,                                    !- Outdoor Air Method
  0.007079211648,                         !- Outdoor Air Flow per Person {m3/s-person}
  ,                                       !- Outdoor Air Flow per Floor Area {m3/s-m2}
  ,                                       !- Outdoor Air Flow Rate {m3/s}
  ,                                       !- Outdoor Air Flow Air Changes per Hour {1/hr}
  ;                                       !- Outdoor Air Flow Rate Fraction Schedule Name

OS:Schedule:Ruleset,
  {f090a0c2-7b6e-4ef8-a0b9-7bc19530c77c}, ! Handle
  Office Misc Occ,                        ! Name
  {e1213682-5221-4dbc-acfd-d5a9bbd45804}, ! Schedule Type Limits Name
  {3130c69c-0068-42e8-a26b-7b8b005d198e}, ! Default Day Schedule Name
  {cec50059-8dde-425f-a52b-b7e81abc6a72}, ! Summer Design Day Schedule Name
  {10b0ecaa-1233-490a-a37b-5fbc73c68366}; ! Winter Design Day Schedule Name

OS:Schedule:Day,
  {3130c69c-0068-42e8-a26b-7b8b005d198e}, ! Handle
  Office Bldg Occ Default Schedule 1,     ! Name
  {e1213682-5221-4dbc-acfd-d5a9bbd45804}, ! Schedule Type Limits Name
  ,                                       ! Interpolate to Timestep
  6,                                      !- Hour 1
  0,                                      !- Minute 1
  0,                                      !- Value Until Time 1
  7,                                      !- Hour 2
  0,                                      !- Minute 2
  0.100000001490116,                      !- Value Until Time 2
  8,                                      !- Hour 3
  0,                                      !- Minute 3
  0.200000002980232,                      !- Value Until Time 3
  20,                                     !- Hour 4
  0,                                      !- Minute 4
  0.400000005960464,                      !- Value Until Time 4
  22,                                     !- Hour 5
  0,                                      !- Minute 5
  0.100000001490116,                      !- Value Until Time 5
  24,                                     !- Hour 6
  0,                                      !- Minute 6
  0.0500000007450581;                     !- Value Until Time 6

OS:Schedule:Day,
  {cec50059-8dde-425f-a52b-b7e81abc6a72}, ! Handle
  Office Bldg Occ Summer Design Day 1,    ! Name
  {e1213682-5221-4dbc-acfd-d5a9bbd45804}, ! Schedule Type Limits Name
  ,                                       ! Interpolate to Timestep
  6,                                      ! Hour 1
  0,                                      ! Minute 1
  0,                                      ! Value Until Time 1
  22,                                     ! Hour 2
  0,                                      ! Minute 2
  1,                                      ! Value Until Time 2
  24,                                     ! Hour 3
  0,                                      ! Minute 3
  0.050000000000000003;                   ! Value Until Time 3

OS:Schedule:Day,
  {10b0ecaa-1233-490a-a37b-5fbc73c68366}, ! Handle
  Office Bldg Occ Winter Design Day 1,    ! Name
  {e1213682-5221-4dbc-acfd-d5a9bbd45804}, ! Schedule Type Limits Name
  ,                                       ! Interpolate to Timestep
  24,                                     ! Hour 1
  0,                                      ! Minute 1
  0;                                      ! Value Until Time 1

OS:Schedule:Rule,
  {f096ad6c-775d-49aa-886e-b288f0a02e11}, ! Handle
  Office Misc Occ Rule 1,                 ! Name
  {f090a0c2-7b6e-4ef8-a0b9-7bc19530c77c}, ! Schedule Ruleset Name
  0,                                      ! Rule Order
  {dbc5e539-7a50-4903-a3fe-fc8e8d729f91}, ! Day Schedule Name
  Yes,                                    ! Apply Sunday
  No,                                     ! Apply Monday
  No,                                     ! Apply Tuesday
  No,                                     ! Apply Wednesday
  No,                                     ! Apply Thursday
  No,                                     ! Apply Friday
  No,                                     ! Apply Saturday
  ,                                       ! Apply Holiday
  DateRange,                              ! Date Specification Type
  1,                                      ! Start Month
  1,                                      ! Start Day
  12,                                     ! End Month
  31;                                     ! End Day

OS:Schedule:Rule,
  {d17056c1-65f8-4d77-b1a8-1dab90b8caac}, ! Handle
  Office Misc Occ Rule 2,                 ! Name
  {f090a0c2-7b6e-4ef8-a0b9-7bc19530c77c}, ! Schedule Ruleset Name
  1,                                      ! Rule Order
  {5190c40b-8c13-4d30-bc14-46e3b0b096db}, ! Day Schedule Name
  No,                                     ! Apply Sunday
  No,                                     ! Apply Monday
  No,                                     ! Apply Tuesday
  No,                                     ! Apply Wednesday
  No,                                     ! Apply Thursday
  No,                                     ! Apply Friday
  Yes,                                    ! Apply Saturday
  ,                                       ! Apply Holiday
  DateRange,                              ! Date Specification Type
  1,                                      ! Start Month
  1,                                      ! Start Day
  12,                                     ! End Month
  31;                                     ! End Day

OS:Schedule:Day,
  {dbc5e539-7a50-4903-a3fe-fc8e8d729f91}, ! Handle
  Office Bldg Occ Rule 1 Day Schedule 1,  ! Name
  {e1213682-5221-4dbc-acfd-d5a9bbd45804}, ! Schedule Type Limits Name
  ,                                       ! Interpolate to Timestep
  24,                                     ! Hour 1
  0,                                      ! Minute 1
  0;                                      ! Value Until Time 1

OS:Schedule:Day,
  {5190c40b-8c13-4d30-bc14-46e3b0b096db}, ! Handle
  Office Bldg Occ Rule 2 Day Schedule 1,  ! Name
  {e1213682-5221-4dbc-acfd-d5a9bbd45804}, ! Schedule Type Limits Name
  ,                                       ! Interpolate to Timestep
  6,                                      !- Hour 1
  0,                                      !- Minute 1
  0,                                      !- Value Until Time 1
  8,                                      !- Hour 2
  0,                                      !- Minute 2
  0.100000001490116,                      !- Value Until Time 2
  14,                                     !- Hour 3
  0,                                      !- Minute 3
  0.25,                                   !- Value Until Time 3
  17,                                     !- Hour 4
  0,                                      !- Minute 4
  0.100000001490116,                      !- Value Until Time 4
  24,                                     !- Hour 5
  0,                                      !- Minute 5
  0;                                      !- Value Until Time 5

OS:Schedule:Ruleset,
  {df79eaa0-2d8f-467c-8cfa-cfc72a2ec05c}, ! Handle
  Office Activity,                        ! Name
  {e3b74e10-fc0d-4c08-9678-2cded8726c3f}, ! Schedule Type Limits Name
  {7bad6269-ad20-4b86-95ec-38a05b69c854}, ! Default Day Schedule Name
  {26f49e55-2207-4947-bcae-d7406d4e1f81}, ! Summer Design Day Schedule Name
  {2465f8dd-9ba6-4d81-bf04-306d3c322dbe}; ! Winter Design Day Schedule Name

OS:Schedule:Day,
  {7bad6269-ad20-4b86-95ec-38a05b69c854}, ! Handle
  Office Activity Default Schedule,       ! Name
  {e3b74e10-fc0d-4c08-9678-2cded8726c3f}, ! Schedule Type Limits Name
  ,                                       ! Interpolate to Timestep
  24,                                     !- Hour 1
  0,                                      !- Minute 1
  132;                                    !- Value Until Time 1

OS:Schedule:Day,
  {26f49e55-2207-4947-bcae-d7406d4e1f81}, ! Handle
  Office Activity Summer Design Day,      ! Name
  {e3b74e10-fc0d-4c08-9678-2cded8726c3f}, ! Schedule Type Limits Name
  ,                                       ! Interpolate to Timestep
  24,                                     !- Hour 1
  0,                                      !- Minute 1
  132;                                    !- Value Until Time 1

OS:Schedule:Day,
  {2465f8dd-9ba6-4d81-bf04-306d3c322dbe}, ! Handle
  Office Activity Winter Design Day,      ! Name
  {e3b74e10-fc0d-4c08-9678-2cded8726c3f}, ! Schedule Type Limits Name
  ,                                       ! Interpolate to Timestep
  24,                                     !- Hour 1
  0,                                      !- Minute 1
  132;                                    !- Value Until Time 1

OS:Schedule:Ruleset,
  {caa71718-a06c-4708-9bb5-8c781d6b6377}, ! Handle
  Office Bldg Light,                      ! Name
  {e1213682-5221-4dbc-acfd-d5a9bbd45804}, ! Schedule Type Limits Name
  {55d4293c-42dc-45d6-905c-816484a15762}, ! Default Day Schedule Name
  {fa24b35f-b4a3-43df-b840-c626e658dd7c}, ! Summer Design Day Schedule Name
  {db05489a-589d-4b3b-840f-4e5dc78f8f0d}; ! Winter Design Day Schedule Name

OS:Schedule:Day,
  {55d4293c-42dc-45d6-905c-816484a15762}, ! Handle
  Office Bldg Light Default Schedule,     ! Name
  {e1213682-5221-4dbc-acfd-d5a9bbd45804}, ! Schedule Type Limits Name
  ,                                       ! Interpolate to Timestep
  5,                                      !- Hour 1
  0,                                      !- Minute 1
  0.05,                                   !- Value Until Time 1
  7,                                      !- Hour 2
  0,                                      !- Minute 2
  0.1,                                    !- Value Until Time 2
  8,                                      !- Hour 3
  0,                                      !- Minute 3
  0.3,                                    !- Value Until Time 3
  17,                                     !- Hour 4
  0,                                      !- Minute 4
  0.9,                                    !- Value Until Time 4
  18,                                     !- Hour 5
  0,                                      !- Minute 5
  0.7,                                    !- Value Until Time 5
  20,                                     !- Hour 6
  0,                                      !- Minute 6
  0.5,                                    !- Value Until Time 6
  22,                                     !- Hour 7
  0,                                      !- Minute 7
  0.3,                                    !- Value Until Time 7
  23,                                     !- Hour 8
  0,                                      !- Minute 8
  0.1,                                    !- Value Until Time 8
  24,                                     !- Hour 9
  0,                                      !- Minute 9
  0.05;                                   !- Value Until Time 9

OS:Schedule:Day,
  {fa24b35f-b4a3-43df-b840-c626e658dd7c}, ! Handle
  Office Bldg Light Summer Design Day,    ! Name
  {e1213682-5221-4dbc-acfd-d5a9bbd45804}, ! Schedule Type Limits Name
  ,                                       ! Interpolate to Timestep
  24,                                     ! Hour 1
  0,                                      ! Minute 1
  1;                                      ! Value Until Time 1

OS:Schedule:Day,
  {db05489a-589d-4b3b-840f-4e5dc78f8f0d}, ! Handle
  Office Bldg Light Winter Design Day,    ! Name
  {e1213682-5221-4dbc-acfd-d5a9bbd45804}, ! Schedule Type Limits Name
  ,                                       ! Interpolate to Timestep
  24,                                     ! Hour 1
  0,                                      ! Minute 1
  0;                                      ! Value Until Time 1

OS:Schedule:Rule,
  {ac9ae3d2-a442-4523-9f7e-3a30b0a3c344}, ! Handle
  Office Bldg Light Rule 1,               ! Name
  {caa71718-a06c-4708-9bb5-8c781d6b6377}, ! Schedule Ruleset Name
  0,                                      ! Rule Order
  {7879c0bc-f496-455e-bdc5-4d1d4fc22ae2}, ! Day Schedule Name
  Yes,                                    ! Apply Sunday
  No,                                     ! Apply Monday
  No,                                     ! Apply Tuesday
  No,                                     ! Apply Wednesday
  No,                                     ! Apply Thursday
  No,                                     ! Apply Friday
  No,                                     ! Apply Saturday
  ,                                       ! Apply Holiday
  DateRange,                              ! Date Specification Type
  1,                                      ! Start Month
  1,                                      ! Start Day
  12,                                     ! End Month
  31;                                     ! End Day

OS:Schedule:Rule,
  {4441e3ba-c012-4e9a-87c3-a6cc1da05c21}, ! Handle
  Office Bldg Light Rule 2,               ! Name
  {caa71718-a06c-4708-9bb5-8c781d6b6377}, ! Schedule Ruleset Name
  1,                                      ! Rule Order
  {82bd90cc-287e-4cb3-b10a-73347b4aeb9f}, ! Day Schedule Name
  No,                                     ! Apply Sunday
  No,                                     ! Apply Monday
  No,                                     ! Apply Tuesday
  No,                                     ! Apply Wednesday
  No,                                     ! Apply Thursday
  No,                                     ! Apply Friday
  Yes,                                    ! Apply Saturday
  ,                                       ! Apply Holiday
  DateRange,                              ! Date Specification Type
  1,                                      ! Start Month
  1,                                      ! Start Day
  12,                                     ! End Month
  31;                                     ! End Day

OS:Schedule:Day,
  {7879c0bc-f496-455e-bdc5-4d1d4fc22ae2}, ! Handle
  Office Bldg Light Rule 1 Day Schedule,  ! Name
  {e1213682-5221-4dbc-acfd-d5a9bbd45804}, ! Schedule Type Limits Name
  ,                                       ! Interpolate to Timestep
  24,                                     ! Hour 1
  0,                                      ! Minute 1
  0.050000000000000003;                   ! Value Until Time 1

OS:Schedule:Day,
  {82bd90cc-287e-4cb3-b10a-73347b4aeb9f}, ! Handle
  Office Bldg Light Rule 2 Day Schedule,  ! Name
  {e1213682-5221-4dbc-acfd-d5a9bbd45804}, ! Schedule Type Limits Name
  ,                                       ! Interpolate to Timestep
  6,                                      ! Hour 1
  0,                                      ! Minute 1
  0.050000000000000003,                   ! Value Until Time 1
  8,                                      ! Hour 2
  0,                                      ! Minute 2
  0.10000000000000001,                    ! Value Until Time 2
  14,                                     ! Hour 3
  0,                                      ! Minute 3
  0.5,                                    ! Value Until Time 3
  17,                                     ! Hour 4
  0,                                      ! Minute 4
  0.14999999999999999,                    ! Value Until Time 4
  24,                                     ! Hour 5
  0,                                      ! Minute 5
  0.050000000000000003;                   ! Value Until Time 5

OS:Schedule:Ruleset,
  {8e98a0d9-d94d-4cd7-bdb4-b30e0aeb1a21}, ! Handle
  Office Bldg Equip,                      ! Name
  {e1213682-5221-4dbc-acfd-d5a9bbd45804}, ! Schedule Type Limits Name
  {19da1abc-22f7-49ce-8e56-0a453bf44d49}, ! Default Day Schedule Name
  {fbf17bad-a586-427e-bd3e-8e0f8e27fc7a}, ! Summer Design Day Schedule Name
  {37047561-41f9-4f92-958e-f1cac4f80fbb}; ! Winter Design Day Schedule Name

OS:Schedule:Day,
  {19da1abc-22f7-49ce-8e56-0a453bf44d49}, ! Handle
  Office Bldg Equip Default Schedule,     ! Name
  {e1213682-5221-4dbc-acfd-d5a9bbd45804}, ! Schedule Type Limits Name
  ,                                       ! Interpolate to Timestep
  8,                                      !- Hour 1
  0,                                      !- Minute 1
  0.4,                                    !- Value Until Time 1
  12,                                     !- Hour 2
  0,                                      !- Minute 2
  0.9,                                    !- Value Until Time 2
  13,                                     !- Hour 3
  0,                                      !- Minute 3
  0.8,                                    !- Value Until Time 3
  17,                                     !- Hour 4
  0,                                      !- Minute 4
  0.9,                                    !- Value Until Time 4
  18,                                     !- Hour 5
  0,                                      !- Minute 5
  0.8,                                    !- Value Until Time 5
  20,                                     !- Hour 6
  0,                                      !- Minute 6
  0.6,                                    !- Value Until Time 6
  22,                                     !- Hour 7
  0,                                      !- Minute 7
  0.5,                                    !- Value Until Time 7
  24,                                     !- Hour 8
  0,                                      !- Minute 8
  0.4;                                    !- Value Until Time 8

OS:Schedule:Day,
  {fbf17bad-a586-427e-bd3e-8e0f8e27fc7a}, ! Handle
  Office Bldg Equip Summer Design Day,    ! Name
  {e1213682-5221-4dbc-acfd-d5a9bbd45804}, ! Schedule Type Limits Name
  ,                                       ! Interpolate to Timestep
  24,                                     ! Hour 1
  0,                                      ! Minute 1
  1;                                      ! Value Until Time 1

OS:Schedule:Day,
  {37047561-41f9-4f92-958e-f1cac4f80fbb}, ! Handle
  Office Bldg Equip Winter Design Day,    ! Name
  {e1213682-5221-4dbc-acfd-d5a9bbd45804}, ! Schedule Type Limits Name
  ,                                       ! Interpolate to Timestep
  24,                                     ! Hour 1
  0,                                      ! Minute 1
  0;                                      ! Value Until Time 1

OS:Schedule:Rule,
  {5cb60278-5c51-40b6-aa0c-9d0729398dd7}, ! Handle
  Office Bldg Equip Rule 1,               ! Name
  {8e98a0d9-d94d-4cd7-bdb4-b30e0aeb1a21}, ! Schedule Ruleset Name
  0,                                      ! Rule Order
  {216b4950-48e6-4e97-a86b-d490f845c136}, ! Day Schedule Name
  Yes,                                    ! Apply Sunday
  No,                                     ! Apply Monday
  No,                                     ! Apply Tuesday
  No,                                     ! Apply Wednesday
  No,                                     ! Apply Thursday
  No,                                     ! Apply Friday
  No,                                     ! Apply Saturday
  ,                                       ! Apply Holiday
  DateRange,                              ! Date Specification Type
  1,                                      ! Start Month
  1,                                      ! Start Day
  12,                                     ! End Month
  31;                                     ! End Day

OS:Schedule:Rule,
  {1a85f14e-5ddc-4ee6-ae9d-f6763431dfda}, ! Handle
  Office Bldg Equip Rule 2,               ! Name
  {8e98a0d9-d94d-4cd7-bdb4-b30e0aeb1a21}, ! Schedule Ruleset Name
  1,                                      ! Rule Order
  {89cce759-b823-4f63-9beb-d66e949e7b98}, ! Day Schedule Name
  No,                                     ! Apply Sunday
  No,                                     ! Apply Monday
  No,                                     ! Apply Tuesday
  No,                                     ! Apply Wednesday
  No,                                     ! Apply Thursday
  No,                                     ! Apply Friday
  Yes,                                    ! Apply Saturday
  ,                                       ! Apply Holiday
  DateRange,                              ! Date Specification Type
  1,                                      ! Start Month
  1,                                      ! Start Day
  12,                                     ! End Month
  31;                                     ! End Day

OS:Schedule:Day,
  {216b4950-48e6-4e97-a86b-d490f845c136}, ! Handle
  Office Bldg Equip Rule 1 Day Schedule,  ! Name
  {e1213682-5221-4dbc-acfd-d5a9bbd45804}, ! Schedule Type Limits Name
  ,                                       ! Interpolate to Timestep
  24,                                     ! Hour 1
  0,                                      ! Minute 1
  0.29999999999999999;                    ! Value Until Time 1

OS:Schedule:Day,
  {89cce759-b823-4f63-9beb-d66e949e7b98}, ! Handle
  Office Bldg Equip Rule 2 Day Schedule,  ! Name
  {e1213682-5221-4dbc-acfd-d5a9bbd45804}, ! Schedule Type Limits Name
  ,                                       ! Interpolate to Timestep
  6,                                      ! Hour 1
  0,                                      ! Minute 1
  0.29999999999999999,                    ! Value Until Time 1
  8,                                      ! Hour 2
  0,                                      ! Minute 2
  0.40000000000000002,                    ! Value Until Time 2
  14,                                     ! Hour 3
  0,                                      ! Minute 3
  0.5,                                    ! Value Until Time 3
  17,                                     ! Hour 4
  0,                                      ! Minute 4
  0.34999999999999998,                    ! Value Until Time 4
  24,                                     ! Hour 5
  0,                                      ! Minute 5
  0.29999999999999999;                    ! Value Until Time 5

OS:Schedule:Ruleset,
  {8af723a7-d0c6-4d87-8cdf-887ab43e6887}, ! Handle
  Office Infil Quarter On,                ! Name
  {e1213682-5221-4dbc-acfd-d5a9bbd45804}, ! Schedule Type Limits Name
  {d37394e0-a984-429a-817b-8eced070a611}, ! Default Day Schedule Name
  {e0deb8fb-7e59-4f06-ae47-17b66c7b632f}, ! Summer Design Day Schedule Name
  {e2461510-74cd-4a8c-9986-3c596c8d979a}; ! Winter Design Day Schedule Name

OS:Schedule:Day,
  {d37394e0-a984-429a-817b-8eced070a611}, ! Handle
  Office Infil Quarter On Default Schedule, ! Name
  {e1213682-5221-4dbc-acfd-d5a9bbd45804}, ! Schedule Type Limits Name
  ,                                       ! Interpolate to Timestep
  6,                                      !- Hour 1
  0,                                      !- Minute 1
  1,                                      !- Value Until Time 1
  22,                                     !- Hour 2
  0,                                      !- Minute 2
  0.25,                                   !- Value Until Time 2
  24,                                     !- Hour 3
  0,                                      !- Minute 3
  1;                                      !- Value Until Time 3

OS:Schedule:Day,
  {e0deb8fb-7e59-4f06-ae47-17b66c7b632f}, ! Handle
  Office Infil Quarter On Summer Design Day, ! Name
  {e1213682-5221-4dbc-acfd-d5a9bbd45804}, ! Schedule Type Limits Name
  ,                                       ! Interpolate to Timestep
  6,                                      ! Hour 1
  0,                                      ! Minute 1
  1,                                      ! Value Until Time 1
  22,                                     ! Hour 2
  0,                                      ! Minute 2
  0.25,                                   ! Value Until Time 2
  24,                                     ! Hour 3
  0,                                      ! Minute 3
  1;                                      ! Value Until Time 3

OS:Schedule:Day,
  {e2461510-74cd-4a8c-9986-3c596c8d979a}, ! Handle
  Office Infil Quarter On Winter Design Day, ! Name
  {e1213682-5221-4dbc-acfd-d5a9bbd45804}, ! Schedule Type Limits Name
  ,                                       ! Interpolate to Timestep
  6,                                      ! Hour 1
  0,                                      ! Minute 1
  1,                                      ! Value Until Time 1
  18,                                     ! Hour 2
  0,                                      ! Minute 2
  0.25,                                   ! Value Until Time 2
  24,                                     ! Hour 3
  0,                                      ! Minute 3
  1;                                      ! Value Until Time 3

OS:Schedule:Rule,
  {c00fe983-6a90-4e46-ae58-0519566fd64a}, ! Handle
  Office Infil Quarter On Rule 1,         ! Name
  {8af723a7-d0c6-4d87-8cdf-887ab43e6887}, ! Schedule Ruleset Name
  0,                                      ! Rule Order
  {4eafca09-0e6c-4284-83e3-b7b5bf161878}, ! Day Schedule Name
  Yes,                                    ! Apply Sunday
  No,                                     ! Apply Monday
  No,                                     ! Apply Tuesday
  No,                                     ! Apply Wednesday
  No,                                     ! Apply Thursday
  No,                                     ! Apply Friday
  No,                                     ! Apply Saturday
  ,                                       ! Apply Holiday
  DateRange,                              ! Date Specification Type
  1,                                      ! Start Month
  1,                                      ! Start Day
  12,                                     ! End Month
  31;                                     ! End Day

OS:Schedule:Rule,
  {e0361dce-3abd-45e2-b201-6c13660e28be}, ! Handle
  Office Infil Quarter On Rule 2,         ! Name
  {8af723a7-d0c6-4d87-8cdf-887ab43e6887}, ! Schedule Ruleset Name
  1,                                      ! Rule Order
  {d2642964-418b-4f8b-8e1b-902f7aef9407}, ! Day Schedule Name
  No,                                     ! Apply Sunday
  No,                                     ! Apply Monday
  No,                                     ! Apply Tuesday
  No,                                     ! Apply Wednesday
  No,                                     ! Apply Thursday
  No,                                     ! Apply Friday
  Yes,                                    ! Apply Saturday
  ,                                       ! Apply Holiday
  DateRange,                              ! Date Specification Type
  1,                                      ! Start Month
  1,                                      ! Start Day
  12,                                     ! End Month
  31;                                     ! End Day

OS:Schedule:Day,
  {4eafca09-0e6c-4284-83e3-b7b5bf161878}, ! Handle
  Office Infil Quarter On Rule 1 Day Schedule, ! Name
  {e1213682-5221-4dbc-acfd-d5a9bbd45804}, ! Schedule Type Limits Name
  ,                                       ! Interpolate to Timestep
  24,                                     ! Hour 1
  0,                                      ! Minute 1
  1;                                      ! Value Until Time 1

OS:Schedule:Day,
  {d2642964-418b-4f8b-8e1b-902f7aef9407}, ! Handle
  Office Infil Quarter On Rule 2 Day Schedule, ! Name
  {e1213682-5221-4dbc-acfd-d5a9bbd45804}, ! Schedule Type Limits Name
  ,                                       ! Interpolate to Timestep
  6,                                      ! Hour 1
  0,                                      ! Minute 1
  1,                                      ! Value Until Time 1
  18,                                     ! Hour 2
  0,                                      ! Minute 2
  0.25,                                   ! Value Until Time 2
  24,                                     ! Hour 3
  0,                                      ! Minute 3
  1;                                      ! Value Until Time 3

OS:ScheduleTypeLimits,
  {e1213682-5221-4dbc-acfd-d5a9bbd45804}, ! Handle
  Fraction,                               ! Name