
OS:Version,
  {e4828e64-cee5-42fc-bbe2-02f017fc1e35}, !- Handle
  1.12.2;                                 !- Version Identifier

OS:Facility,
  {469dae03-0fac-40e7-bb5b-1cd8d369321a}; !- Handle

OS:Building,
  {83e6d166-3fb7-4d33-9d5c-2861fef80695}, !- Handle
  Building 1,                             !- Name
  ,                                       !- Building Sector Type
  ,                                       !- North Axis {deg}
  ,                                       !- Nominal Floor to Floor Height {m}
  ,                                       !- Space Type Name
  ,                                       !- Default Construction Set Name
  ;                                       !- Default Schedule Set Name

OS:BuildingStory,
  {f16cd178-857e-4436-a4f0-63e290b26fae}, !- Handle
  Level 1,                                !- Name
  ,                                       !- Nominal Z Coordinate {m}
  ,                                       !- Nominal Floor to Floor Height {m}
  ,                                       !- Default Construction Set Name
  ,                                       !- Default Schedule Set Name
  ;                                       !- Group Rendering Name

OS:BuildingStory,
  {6d042467-8e0c-434f-90fb-751070411192}, !- Handle
  Level 1 Plenum,                         !- Name
  ,                                       !- Nominal Z Coordinate {m}
  2.7342,                                 !- Nominal Floor to Floor Height {m}
  ,                                       !- Default Construction Set Name
  ,                                       !- Default Schedule Set Name
  ;                                       !- Group Rendering Name

OS:BuildingStory,
  {ca52db13-3afb-4074-b778-c77ea84bfac5}, !- Handle
  Level 2,                                !- Name
  ,                                       !- Nominal Z Coordinate {m}
  3.9624,                                 !- Nominal Floor to Floor Height {m}
  ,                                       !- Default Construction Set Name
  ,                                       !- Default Schedule Set Name
  ;                                       !- Group Rendering Name

OS:BuildingStory,
  {fbfbf6f7-b146-4e83-9769-e2b7fd2c7c5d}, !- Handle
  Level 2 Plenum,                         !- Name
  ,                                       !- Nominal Z Coordinate {m}
  6.7056,                                 !- Nominal Floor to Floor Height {m}
  ,                                       !- Default Construction Set Name
  ,                                       !- Default Schedule Set Name
  ;                                       !- Group Rendering Name

OS:BuildingStory,
  {94d63124-538b-4da1-9bfa-91faf7cd4ada}, !- Handle
  Level 3,                                !- Name
  ,                                       !- Nominal Z Coordinate {m}
  7.9248,                                 !- Nominal Floor to Floor Height {m}
  ,                                       !- Default Construction Set Name
  ,                                       !- Default Schedule Set Name
  ;                                       !- Group Rendering Name

OS:BuildingStory,
  {c8c9a457-fc03-400b-8ad7-9d3b7fe3b974}, !- Handle
  Level 3 Plenum,                         !- Name
  ,                                       !- Nominal Z Coordinate {m}
  10.668,                                 !- Nominal Floor to Floor Height {m}
  ,                                       !- Default Construction Set Name
  ,                                       !- Default Schedule Set Name
  ;                                       !- Group Rendering Name

OS:BuildingStory,
  {f795115f-9372-49f4-bad1-6e5b9449333b}, !- Handle
  Roof Level,                             !- Name
  ,                                       !- Nominal Z Coordinate {m}
  11.8872,                                !- Nominal Floor to Floor Height {m}
  ,                                       !- Default Construction Set Name
  ,                                       !- Default Schedule Set Name
  ;                                       !- Group Rendering Name

OS:Space,
  {c56d6d4b-3484-4310-a376-60152078d615}, !- Handle
  Space_zone_0,                           !- Name
  ,                                       !- Space Type Name
  ,                                       !- Default Construction Set Name
  ,                                       !- Default Schedule Set Name
  ,                                       !- Direction of Relative North {deg}
  ,                                       !- X Origin {m}
  ,                                       !- Y Origin {m}
  ,                                       !- Z Origin {m}
  {f16cd178-857e-4436-a4f0-63e290b26fae}, !- Building Story Name
  {dd8b8234-8695-41ce-99be-b3dcbed21477}; !- Thermal Zone Name

OS:Surface,
  {e9336f77-abc9-4d88-97d2-dd7ef2045633}, !- Handle
  Surface 1,                              !- Name
  Floor,                                  !- Surface Type
  ,                                       !- Construction Name
  {c56d6d4b-3484-4310-a376-60152078d615}, !- Space Name
  Ground,                                 !- Outside Boundary Condition
  ,                                       !- Outside Boundary Condition Object
  NoSun,                                  !- Sun Exposure
  NoWind,                                 !- Wind Exposure
  ,                                       !- View Factor to Ground
  ,                                       !- Number of Vertices
  0, 0, 0,                                !- X,Y,Z Vertex 1 {m}
  4.5732, 4.5732, 0,                      !- X,Y,Z Vertex 2 {m}
  45.337799, 4.5732, 0,                   !- X,Y,Z Vertex 3 {m}
  49.910999, 0, 0;                        !- X,Y,Z Vertex 4 {m}

OS:Surface,
  {4490a3d8-393e-425f-8b56-14c9818669a9}, !- Handle
  Surface 2,                              !- Name
  RoofCeiling,                            !- Surface Type
  ,                                       !- Construction Name
  {c56d6d4b-3484-4310-a376-60152078d615}, !- Space Name
  Outdoors,                               !- Outside Boundary Condition
  ,                                       !- Outside Boundary Condition Object
  SunExposed,                             !- Sun Exposure
  WindExposed,                            !- Wind Exposure
  ,                                       !- View Factor to Ground
  ,                                       !- Number of Vertices
  0, 0, 2.7432,                           !- X,Y,Z Vertex 1 {m}
  49.910999, 0, 2.7432,                   !- X,Y,Z Vertex 2 {m}
  45.337799, 4.5732, 2.7432,              !- X,Y,Z Vertex 3 {m}
  4.5732, 4.5732, 2.7432;                 !- X,Y,Z Vertex 4 {m}

OS:Surface,
  {94de42f5-9167-4ff7-810c-8c74b241afb0}, !- Handle
  Surface 3,                              !- Name
  Wall,                                   !- Surface Type
  ,                                       !- Construction Name
  {c56d6d4b-3484-4310-a376-60152078d615}, !- Space Name
  Surface,                                !- Outside Boundary Condition
  {a9a866fa-451a-4055-b3e1-fece30fe72d4}, !- Outside Boundary Condition Object
  NoSun,                                  !- Sun Exposure
  NoWind,                                 !- Wind Exposure
  ,                                       !- View Factor to Ground
  ,                                       !- Number of Vertices
  4.5732, 4.5732, 0,                      !- X,Y,Z Vertex 1 {m}
  0, 0, 0,                                !- X,Y,Z Vertex 2 {m}
  0, 0, 2.7432,                           !- X,Y,Z Vertex 3 {m}
  4.5732, 4.5732, 2.7432;                 !- X,Y,Z Vertex 4 {m}

OS:Surface,
  {a4bd701f-6b9f-4224-a54f-0de217ef8906}, !- Handle
  Surface 4,                              !- Name
  Wall,                                   !- Surface Type
  ,                                       !- Construction Name
  {c56d6d4b-3484-4310-a376-60152078d615}, !- Space Name
  Outdoors,                               !- Outside Boundary Condition
  ,                                       !- Outside Boundary Condition Object
  SunExposed,                             !- Sun Exposure
  WindExposed,                            !- Wind Exposure
  ,                                       !- View Factor to Ground
  ,                                       !- Number of Vertices
  0, 0, 0,                                !- X,Y,Z Vertex 1 {m}
  49.910999, 0, 0,                        !- X,Y,Z Vertex 2 {m}
  49.910999, 0, 2.7432,                   !- X,Y,Z Vertex 3 {m}
  0, 0, 2.7432;                           !- X,Y,Z Vertex 4 {m}

OS:SubSurface,
  {76171d97-8c0f-45d2-bee8-5b759b8cb874}, !- Handle
  Sub Surface 1,                          !- Name
  FixedWindow,                            !- Sub Surface Type
  ,                                       !- Construction Name
  {a4bd701f-6b9f-4224-a54f-0de217ef8906}, !- Surface Name
  ,                                       !- Outside Boundary Condition Object
  ,                                       !- View Factor to Ground
  ,                                       !- Shading Control Name
  ,                                       !- Frame and Divider Name
  ,                                       !- Multiplier
  ,                                       !- Number of Vertices
  0.49911, 0, 0.91472,                    !- X,Y,Z Vertex 1 {m}
  49.411888, 0, 0.91472,                  !- X,Y,Z Vertex 2 {m}
  49.411888, 0, 2.532088,                 !- X,Y,Z Vertex 3 {m}
  0.49911, 0, 2.532088;                   !- X,Y,Z Vertex 4 {m}

OS:Surface,
  {d089817d-d09f-4fa7-bb13-0a6161bccf1b}, !- Handle
  Surface 5,                              !- Name
  Wall,                                   !- Surface Type
  ,                                       !- Construction Name
  {c56d6d4b-3484-4310-a376-60152078d615}, !- Space Name
  Surface,                                !- Outside Boundary Condition
  {a6ec54ff-bed4-484b-b063-f8951ea68bbb}, !- Outside Boundary Condition Object
  NoSun,                                  !- Sun Exposure
  NoWind,                                 !- Wind Exposure
  ,                                       !- View Factor to Ground
  ,                                       !- Number of Vertices
  49.910999, 0, 0,                        !- X,Y,Z Vertex 1 {m}
  45.337799, 4.5732, 0,                   !- X,Y,Z Vertex 2 {m}
  45.337799, 4.5732, 2.7432,              !- X,Y,Z Vertex 3 {m}
  49.910999, 0, 2.7432;                   !- X,Y,Z Vertex 4 {m}

OS:Surface,
  {80b38f81-c60e-48a1-8888-02f5417365a3}, !- Handle
  Surface 6,                              !- Name
  Wall,                                   !- Surface Type
  ,                                       !- Construction Name
  {c56d6d4b-3484-4310-a376-60152078d615}, !- Space Name
  Surface,                                !- Outside Boundary Condition
  {ae7917e3-18a0-4f2b-86c9-79bd6c73588e}, !- Outside Boundary Condition Object
  NoSun,                                  !- Sun Exposure
  NoWind,                                 !- Wind Exposure
  ,                                       !- View Factor to Ground
  ,                                       !- Number of Vertices
  45.337799, 4.5732, 0,                   !- X,Y,Z Vertex 1 {m}
  4.5732, 4.5732, 0,                      !- X,Y,Z Vertex 2 {m}
  4.5732, 4.5732, 2.7432,                 !- X,Y,Z Vertex 3 {m}
  45.337799, 4.5732, 2.7432;              !- X,Y,Z Vertex 4 {m}

OS:Space,
  {e7fe8530-9979-442a-b734-a0aae51dde1b}, !- Handle
  Space_zone_1,                           !- Name
  ,                                       !- Space Type Name
  ,                                       !- Default Construction Set Name
  ,                                       !- Default Schedule Set Name
  ,                                       !- Direction of Relative North {deg}
  ,                                       !- X Origin {m}
  ,                                       !- Y Origin {m}
  ,                                       !- Z Origin {m}
  {f16cd178-857e-4436-a4f0-63e290b26fae}, !- Building Story Name
  {a626b91f-9748-4f18-8018-31e87db4b435}; !- Thermal Zone Name

OS:Surface,
  {f1fb7acf-790a-4afc-afcd-e0b0a9125f3c}, !- Handle
  Surface 7,                              !- Name
  Floor,                                  !- Surface Type
  ,                                       !- Construction Name
  {e7fe8530-9979-442a-b734-a0aae51dde1b}, !- Space Name
  Ground,                                 !- Outside Boundary Condition
  ,                                       !- Outside Boundary Condition Object
  NoSun,                                  !- Sun Exposure
  NoWind,                                 !- Wind Exposure
  ,                                       !- View Factor to Ground
  ,                                       !- Number of Vertices
  45.337799, 4.5732, 0,                   !- X,Y,Z Vertex 1 {m}
  45.337799, 28.7006, 0,                  !- X,Y,Z Vertex 2 {m}
  49.910999, 33.2738, 0,                  !- X,Y,Z Vertex 3 {m}
  49.910999, 0, 0;                        !- X,Y,Z Vertex 4 {m}

OS:Surface,
  {15c48ccd-81a8-4cf4-9a2a-636f3c641d6b}, !- Handle
  Surface 8,                              !- Name
  RoofCeiling,                            !- Surface Type
  ,                                       !- Construction Name
  {e7fe8530-9979-442a-b734-a0aae51dde1b}, !- Space Name
  Outdoors,                               !- Outside Boundary Condition
  ,                                       !- Outside Boundary Condition Object
  SunExposed,                             !- Sun Exposure
  WindExposed,                            !- Wind Exposure
  ,                                       !- View Factor to Ground
  ,                                       !- Number of Vertices
  45.337799, 4.5732, 2.7432,              !- X,Y,Z Vertex 1 {m}
  49.910999, 0, 2.7432,                   !- X,Y,Z Vertex 2 {m}
  49.910999, 33.2738, 2.7432,             !- X,Y,Z Vertex 3 {m}
  45.337799, 28.7006, 2.7432;             !- X,Y,Z Vertex 4 {m}

OS:Surface,
  {4299b6a5-124b-4b57-a23f-85cc81631995}, !- Handle
  Surface 9,                              !- Name
  Wall,                                   !- Surface Type
  ,                                       !- Construction Name
  {e7fe8530-9979-442a-b734-a0aae51dde1b}, !- Space Name
  Surface,                                !- Outside Boundary Condition
  {4cecbb7b-de1b-4911-b758-c589d0881d38}, !- Outside Boundary Condition Object
  NoSun,                                  !- Sun Exposure
  NoWind,                                 !- Wind Exposure
  ,                                       !- View Factor to Ground
  ,                                       !- Number of Vertices
  45.337799, 28.7006, 0,                  !- X,Y,Z Vertex 1 {m}
  45.337799, 4.5732, 0,                   !- X,Y,Z Vertex 2 {m}
  45.337799, 4.5732, 2.7432,              !- X,Y,Z Vertex 3 {m}
  45.337799, 28.7006, 2.7432;             !- X,Y,Z Vertex 4 {m}

OS:Surface,
  {a6ec54ff-bed4-484b-b063-f8951ea68bbb}, !- Handle
  Surface 10,                             !- Name
  Wall,                                   !- Surface Type
  ,                                       !- Construction Name
  {e7fe8530-9979-442a-b734-a0aae51dde1b}, !- Space Name
  Surface,                                !- Outside Boundary Condition
  {d089817d-d09f-4fa7-bb13-0a6161bccf1b}, !- Outside Boundary Condition Object
  NoSun,                                  !- Sun Exposure
  NoWind,                                 !- Wind Exposure
  ,                                       !- View Factor to Ground
  ,                                       !- Number of Vertices
  45.337799, 4.5732, 0,                   !- X,Y,Z Vertex 1 {m}
  49.910999, 0, 0,                        !- X,Y,Z Vertex 2 {m}
  49.910999, 0, 2.7432,                   !- X,Y,Z Vertex 3 {m}
  45.337799, 4.5732, 2.7432;              !- X,Y,Z Vertex 4 {m}

OS:Surface,
  {e9ebee7a-e0b9-4bcb-9575-573cd95a6588}, !- Handle
  Surface 11,                             !- Name
  Wall,                                   !- Surface Type
  ,                                       !- Construction Name
  {e7fe8530-9979-442a-b734-a0aae51dde1b}, !- Space Name
  Outdoors,                               !- Outside Boundary Condition
  ,                                       !- Outside Boundary Condition Object
  SunExposed,                             !- Sun Exposure
  WindExposed,                            !- Wind Exposure
  ,                                       !- View Factor to Ground
  ,                                       !- Number of Vertices
  49.910999, 0, 0,                        !- X,Y,Z Vertex 1 {m}
  49.910999, 33.2738, 0,                  !- X,Y,Z Vertex 2 {m}
  49.910999, 33.2738, 2.7432,             !- X,Y,Z Vertex 3 {m}
  49.910999, 0, 2.7432;                   !- X,Y,Z Vertex 4 {m}

OS:SubSurface,
  {fc9f5ac4-8193-4cd0-997a-6621b9bd75db}, !- Handle
  Sub Surface 2,                          !- Name
  FixedWindow,                            !- Sub Surface Type
  ,                                       !- Construction Name
  {e9ebee7a-e0b9-4bcb-9575-573cd95a6588}, !- Surface Name
  ,                                       !- Outside Boundary Condition Object
  ,                                       !- View Factor to Ground
  ,                                       !- Shading Control Name
  ,                                       !- Frame and Divider Name
  ,                                       !- Multiplier
  ,                                       !- Number of Vertices
  49.910999, 0.332738, 0.91472,           !- X,Y,Z Vertex 1 {m}
  49.910999, 32.941063, 0.91472,          !- X,Y,Z Vertex 2 {m}
  49.910999, 32.941063, 2.532088,         !- X,Y,Z Vertex 3 {m}
  49.910999, 0.332738, 2.532088;          !- X,Y,Z Vertex 4 {m}

OS:Surface,
  {4da93c65-2685-4cc4-8ea5-2ecd9c1dcad2}, !- Handle
  Surface 12,                             !- Name
  Wall,                                   !- Surface Type
  ,                                       !- Construction Name
  {e7fe8530-9979-442a-b734-a0aae51dde1b}, !- Space Name
  Surface,                                !- Outside Boundary Condition
  {cb5a31c1-57ff-4d00-ac88-cb2886ee4e14}, !- Outside Boundary Condition Object
  NoSun,                                  !- Sun Exposure
  NoWind,                                 !- Wind Exposure
  ,                                       !- View Factor to Ground
  ,                                       !- Number of Vertices
  49.910999, 33.2738, 0,                  !- X,Y,Z Vertex 1 {m}
  45.337799, 28.7006, 0,                  !- X,Y,Z Vertex 2 {m}
  45.337799, 28.7006, 2.7432,             !- X,Y,Z Vertex 3 {m}
  49.910999, 33.2738, 2.7432;             !- X,Y,Z Vertex 4 {m}

OS:Space,
  {a8e55c87-0474-4967-87f2-b3efdc278f40}, !- Handle
  Space_zone_2,                           !- Name
  ,                                       !- Space Type Name
  ,                                       !- Default Construction Set Name
  ,                                       !- Default Schedule Set Name
  ,                                       !- Direction of Relative North {deg}
  ,                                       !- X Origin {m}
  ,                                       !- Y Origin {m}
  ,                                       !- Z Origin {m}
  {f16cd178-857e-4436-a4f0-63e290b26fae}, !- Building Story Name
  {917b54a8-30a5-47e6-9370-9fc93562cde9}; !- Thermal Zone Name

OS:Surface,
  {23e83e88-d8d2-4bdd-bc6e-147322c10779}, !- Handle
  Surface 13,                             !- Name
  Floor,                                  !- Surface Type
  ,                                       !- Construction Name
  {a8e55c87-0474-4967-87f2-b3efdc278f40}, !- Space Name
  Ground,                                 !- Outside Boundary Condition
  ,                                       !- Outside Boundary Condition Object
  NoSun,                                  !- Sun Exposure
  NoWind,                                 !- Wind Exposure
  ,                                       !- View Factor to Ground
  ,                                       !- Number of Vertices
  4.5732, 28.7006, 0,                     !- X,Y,Z Vertex 1 {m}
  0, 33.2738, 0,                          !- X,Y,Z Vertex 2 {m}
  49.910999, 33.2738, 0,                  !- X,Y,Z Vertex 3 {m}
  45.337799, 28.7006, 0;                  !- X,Y,Z Vertex 4 {m}

OS:Surface,
  {33632a0b-0ca4-4782-84dd-ad77b5744392}, !- Handle
  Surface 14,                             !- Name
  RoofCeiling,                            !- Surface Type
  ,                                       !- Construction Name
  {a8e55c87-0474-4967-87f2-b3efdc278f40}, !- Space Name
  Outdoors,                               !- Outside Boundary Condition
  ,                                       !- Outside Boundary Condition Object
  SunExposed,                             !- Sun Exposure
  WindExposed,                            !- Wind Exposure
  ,                                       !- View Factor to Ground
  ,                                       !- Number of Vertices
  4.5732, 28.7006, 2.7432,                !- X,Y,Z Vertex 1 {m}
  45.337799, 28.7006, 2.7432,             !- X,Y,Z Vertex 2 {m}
  49.910999, 33.2738, 2.7432,             !- X,Y,Z Vertex 3 {m}
  0, 33.2738, 2.7432;                     !- X,Y,Z Vertex 4 {m}

OS:Surface,
  {48520ddd-e6a4-42c7-9df7-9ccc34daf3c3}, !- Handle
  Surface 15,                             !- Name
  Wall,                                   !- Surface Type
  ,                                       !- Construction Name
  {a8e55c87-0474-4967-87f2-b3efdc278f40}, !- Space Name
  Surface,                                !- Outside Boundary Condition
  {fe104592-21f1-47e1-b569-f899300d27b7}, !- Outside Boundary Condition Object
  NoSun,                                  !- Sun Exposure
  NoWind,                                 !- Wind Exposure
  ,                                       !- View Factor to Ground
  ,                                       !- Number of Vertices
  0, 33.2738, 0,                          !- X,Y,Z Vertex 1 {m}
  4.5732, 28.7006, 0,                     !- X,Y,Z Vertex 2 {m}
  4.5732, 28.7006, 2.7432,                !- X,Y,Z Vertex 3 {m}
  0, 33.2738, 2.7432;                     !- X,Y,Z Vertex 4 {m}

OS:Surface,
  {71384303-34d0-4533-bac0-8550558d7c8b}, !- Handle
  Surface 16,                             !- Name
  Wall,                                   !- Surface Type
  ,                                       !- Construction Name
  {a8e55c87-0474-4967-87f2-b3efdc278f40}, !- Space Name
  Surface,                                !- Outside Boundary Condition
  {3acb7a37-dc2c-4c47-ae45-3705857bf07e}, !- Outside Boundary Condition Object
  NoSun,                                  !- Sun Exposure
  NoWind,                                 !- Wind Exposure
  ,                                       !- View Factor to Ground
  ,                                       !- Number of Vertices
  4.5732, 28.7006, 0,                     !- X,Y,Z Vertex 1 {m}
  45.337799, 28.7006, 0,                  !- X,Y,Z Vertex 2 {m}
  45.337799, 28.7006, 2.7432,             !- X,Y,Z Vertex 3 {m}
  4.5732, 28.7006, 2.7432;                !- X,Y,Z Vertex 4 {m}

OS:Surface,
  {cb5a31c1-57ff-4d00-ac88-cb2886ee4e14}, !- Handle
  Surface 17,                             !- Name
  Wall,                                   !- Surface Type
  ,                                       !- Construction Name
  {a8e55c87-0474-4967-87f2-b3efdc278f40}, !- Space Name
  Surface,                                !- Outside Boundary Condition
  {4da93c65-2685-4cc4-8ea5-2ecd9c1dcad2}, !- Outside Boundary Condition Object
  NoSun,                                  !- Sun Exposure
  NoWind,                                 !- Wind Exposure
  ,                                       !- View Factor to Ground
  ,                                       !- Number of Vertices
  45.337799, 28.7006, 0,                  !- X,Y,Z Vertex 1 {m}
  49.910999, 33.2738, 0,                  !- X,Y,Z Vertex 2 {m}
  49.910999, 33.2738, 2.7432,             !- X,Y,Z Vertex 3 {m}
  45.337799, 28.7006, 2.7432;             !- X,Y,Z Vertex 4 {m}

OS:Surface,
  {0386ef30-6df5-41b5-aaf7-3a85174dca60}, !- Handle
  Surface 18,                             !- Name
  Wall,                                   !- Surface Type
  ,                                       !- Construction Name
  {a8e55c87-0474-4967-87f2-b3efdc278f40}, !- Space Name
  Outdoors,                               !- Outside Boundary Condition
  ,                                       !- Outside Boundary Condition Object
  SunExposed,                             !- Sun Exposure
  WindExposed,                            !- Wind Exposure
  ,                                       !- View Factor to Ground
  ,                                       !- Number of Vertices
  49.910999, 33.2738, 0,                  !- X,Y,Z Vertex 1 {m}
  0, 33.2738, 0,                          !- X,Y,Z Vertex 2 {m}
  0, 33.2738, 2.7432,                     !- X,Y,Z Vertex 3 {m}
  49.910999, 33.2738, 2.7432;             !- X,Y,Z Vertex 4 {m}

OS:SubSurface,
  {ecdf3687-b86e-42e9-b50b-13536e2229d5}, !- Handle
  Sub Surface 3,                          !- Name
  FixedWindow,                            !- Sub Surface Type
  ,                                       !- Construction Name
  {0386ef30-6df5-41b5-aaf7-3a85174dca60}, !- Surface Name
  ,                                       !- Outside Boundary Condition Object
  ,                                       !- View Factor to Ground
  ,                                       !- Shading Control Name
  ,                                       !- Frame and Divider Name
  ,                                       !- Multiplier
  ,                                       !- Number of Vertices
  49.411888, 33.2738, 0.91472,            !- X,Y,Z Vertex 1 {m}
  0.49911, 33.2738, 0.91472,              !- X,Y,Z Vertex 2 {m}
  0.49911, 33.2738, 2.532088,             !- X,Y,Z Vertex 3 {m}
  49.411888, 33.2738, 2.532088;           !- X,Y,Z Vertex 4 {m}

OS:Space,
  {1b15d251-fe2c-4675-af60-dc1d92e4c941}, !- Handle
  Space_zone_3,                           !- Name
  ,                                       !- Space Type Name
  ,                                       !- Default Construction Set Name
  ,                                       !- Default Schedule Set Name
  ,                                       !- Direction of Relative North {deg}
  ,                                       !- X Origin {m}
  ,                                       !- Y Origin {m}
  ,                                       !- Z Origin {m}
  {f16cd178-857e-4436-a4f0-63e290b26fae}, !- Building Story Name
  {03bddc30-f33e-408c-a8d0-2411c358be67}; !- Thermal Zone Name

OS:Surface,
  {1453d726-ce33-4fac-b946-d954f5e9c79e}, !- Handle
  Surface 19,                             !- Name
  Floor,                                  !- Surface Type
  ,                                       !- Construction Name
  {1b15d251-fe2c-4675-af60-dc1d92e4c941}, !- Space Name
  Ground,                                 !- Outside Boundary Condition
  ,                                       !- Outside Boundary Condition Object
  NoSun,                                  !- Sun Exposure
  NoWind,                                 !- Wind Exposure
  ,                                       !- View Factor to Ground
  ,                                       !- Number of Vertices
  0, 0, 0,                                !- X,Y,Z Vertex 1 {m}
  0, 33.2738, 0,                          !- X,Y,Z Vertex 2 {m}
  4.5732, 28.7006, 0,                     !- X,Y,Z Vertex 3 {m}
  4.5732, 4.5732, 0;                      !- X,Y,Z Vertex 4 {m}

OS:Surface,
  {240e7b8b-543d-427e-994a-82ec02ebfb45}, !- Handle
  Surface 20,                             !- Name
  RoofCeiling,                            !- Surface Type
  ,                                       !- Construction Name
  {1b15d251-fe2c-4675-af60-dc1d92e4c941}, !- Space Name
  Outdoors,                               !- Outside Boundary Condition
  ,                                       !- Outside Boundary Condition Object
  SunExposed,                             !- Sun Exposure
  WindExposed,                            !- Wind Exposure
  ,                                       !- View Factor to Ground
  ,                                       !- Number of Vertices
  0, 0, 2.7432,                           !- X,Y,Z Vertex 1 {m}
  4.5732, 4.5732, 2.7432,                 !- X,Y,Z Vertex 2 {m}
  4.5732, 28.7006, 2.7432,                !- X,Y,Z Vertex 3 {m}
  0, 33.2738, 2.7432;                     !- X,Y,Z Vertex 4 {m}

OS:Surface,
  {d1ee6531-f7f1-4254-96e8-a1520a15cb28}, !- Handle
  Surface 21,                             !- Name
  Wall,                                   !- Surface Type
  ,                                       !- Construction Name
  {1b15d251-fe2c-4675-af60-dc1d92e4c941}, !- Space Name
  Outdoors,                               !- Outside Boundary Condition
  ,                                       !- Outside Boundary Condition Object
  SunExposed,                             !- Sun Exposure
  WindExposed,                            !- Wind Exposure
  ,                                       !- View Factor to Ground
  ,                                       !- Number of Vertices
  0, 33.2738, 0,                          !- X,Y,Z Vertex 1 {m}
  0, 0, 0,                                !- X,Y,Z Vertex 2 {m}
  0, 0, 2.7432,                           !- X,Y,Z Vertex 3 {m}
  0, 33.2738, 2.7432;                     !- X,Y,Z Vertex 4 {m}

OS:SubSurface,
  {59d6ceb9-9185-453a-b7f8-1f0525880625}, !- Handle
  Sub Surface 4,                          !- Name
  FixedWindow,                            !- Sub Surface Type
  ,                                       !- Construction Name
  {d1ee6531-f7f1-4254-96e8-a1520a15cb28}, !- Surface Name