
OS:Version,
  {34df1eee-fc92-4eb1-afed-323147d1ce1f}, !- Handle
  1.12.2;                                 !- Version Identifier

OS:SpaceType,
  {7d9b2f02-75b0-4324-add8-2a7dd94f18b8}, !- Handle
  189.1-2009 - Office - Lobby - CZ4-8,    !- Name
  ,                                       !- Default Construction Set Name
  {e6345e86-0fd7-4df0-91be-855298587b2c}, !- Default Schedule Set Name
  {0c72adf7-912d-4b5f-823d-be38dc4764c9}, !- Group Rendering Name
  {b196494f-eceb-4c4f-adb5-ec90c31ab9b9}, !- Design Specification Outdoor Air Object Name
  Office,                                 !- Standards Building Type
  Lobby;                                  !- Standards Space Type

OS:DefaultScheduleSet,
  {e6345e86-0fd7-4df0-91be-855298587b2c}, !- Handle
  189.1-2009 - Office - Lobby - CZ4-8 Schedule Set, !- Name
  ,                                       !- Hours of Operation Schedule Name
  {e86ddd63-bf4e-4bb9-b80f-6ed0079b2cdb}, !- Number of People Schedule Name
  {67669df9-d9f4-4cfe-9c20-27734c912768}, !- People Activity Level Schedule Name
  {86e0ef91-9fd2-4584-a251-5af0f446cc38}, !- Lighting Schedule Name
  {0bcc44c3-15b8-43fe-833d-5c691dd8c7d4}, !- Electric Equipment Schedule Name
  ,                                       !- Gas Equipment Schedule Name
  ,                                       !- Hot Water Equipment Schedule Name
  {62dfac2c-734d-4171-8f22-f1edee4657b6}, !- Infiltration Schedule Name
  ,                                       !- Steam Equipment Schedule Name
  ;                                       !- Other Equipment Schedule Name

OS:Rendering:Color,
  {0c72adf7-912d-4b5f-823d-be38dc4764c9}, !- Handle
  Rendering Color 23,                     !- Name
  230,                                    !- Rendering Red Value
  157,                                    !- Rendering Green Value
  120;                                    !- Rendering Blue Value

OS:DesignSpecification:OutdoorAir,
  {b196494f-eceb-4c4f-adb5-ec90c31ab9b9}, !- Handle
  189.1-2009 - Office - Lobby - CZ4-8 Ventilation, !- Name
  Sum,                                    !- Outdoor Air Method
  0.007079211648,                         !- Outdoor Air Flow per Person {m3/s-person}
  ,                                       !- Outdoor Air Flow per Floor Area {m3/s-m2}
  ,                                       !- Outdoor Air Flow Rate {m3/s}
  ,                                       !- Outdoor Air Flow Air Changes per Hour {1/hr}
  ;                                       !- Outdoor Air Flow Rate Fraction Schedule Name

OS:Schedule:Ruleset,
  {e86ddd63-bf4e-4bb9-b80f-6ed0079b2cdb}, ! Handle
  Office Misc Occ,                        ! Name
  {9d1323c3-9c5c-49a3-ada0-a7b33ba97934}, ! Schedule Type Limits Name
  {daed89bf-6f12-4257-b481-bff7e6bbc75c}, ! Default Day Schedule Name
  {5a4a0f01-f11e-4cf1-9c31-1b52a85839a4}, ! Summer Design Day Schedule Name
  {6e7b169d-1aa6-4cf0-8950-f64595d1e083}; ! Winter Design Day Schedule Name

OS:Schedule:Day,
  {daed89bf-6f12-4257-b481-bff7e6bbc75c}, ! Handle
  Office Bldg Occ Default Schedule 1,     ! Name
  {9d1323c3-9c5c-49a3-ada0-a7b33ba97934}, ! Schedule Type Limits Name
  ,                                       ! Interpolate to Timestep
  6,                                      !- Hour 1
  0,                                      !- Minute 1
  0,                                      !- Value Until Time 1
  7,                                      !- Hour 2
  0,                                      !- Minute 2
  0.100000001490116,                      !- Value Until Time 2
  8,                                      !- Hour 3
  0,                                      !- Minute 3
  0.200000002980232,                      !- Value Until Time 3
  20,                                     !- Hour 4
  0,                                      !- Minute 4
  0.400000005960464,                      !- Value Until Time 4
  22,                                     !- Hour 5
  0,                                      !- Minute 5
  0.100000001490116,                      !- Value Until Time 5
  24,                                     !- Hour 6
  0,                                      !- Minute 6
  0.0500000007450581;                     !- Value Until Time 6

OS:Schedule:Day,
  {5a4a0f01-f11e-4cf1-9c31-1b52a85839a4}, ! Handle
  Office Bldg Occ Summer Design Day 1,    ! Name
  {9d1323c3-9c5c-49a3-ada0-a7b33ba97934}, ! Schedule Type Limits Name
  ,                                       ! Interpolate to Timestep
  6,                                      ! Hour 1
  0,                                      ! Minute 1
  0,                                      ! Value Until Time 1
  22,                                     ! Hour 2
  0,                                      ! Minute 2
  1,                                      ! Value Until Time 2
  24,                                     ! Hour 3
  0,                                      ! Minute 3
  0.050000000000000003;                   ! Value Until Time 3

OS:Schedule:Day,
  {6e7b169d-1aa6-4cf0-8950-f64595d1e083}, ! Handle
  Office Bldg Occ Winter Design Day 1,    ! Name
  {9d1323c3-9c5c-49a3-ada0-a7b33ba97934}, ! Schedule Type Limits Name
  ,                                       ! Interpolate to Timestep
  24,                                     ! Hour 1
  0,                                      ! Minute 1
  0;                                      ! Value Until Time 1

OS:Schedule:Rule,
  {75ff9aae-1d2a-4010-bf48-f700a85e81c0}, ! Handle
  Office Misc Occ Rule 1,                 ! Name
  {e86ddd63-bf4e-4bb9-b80f-6ed0079b2cdb}, ! Schedule Ruleset Name
  0,                                      ! Rule Order
  {783c8af0-e156-4726-bf8b-ea722815526a}, ! Day Schedule Name
  Yes,                                    ! Apply Sunday
  No,                                     ! Apply Monday
  No,                                     ! Apply Tuesday
  No,                                     ! Apply Wednesday
  No,                                     ! Apply Thursday
  No,                                     ! Apply Friday
  No,                                     ! Apply Saturday
  ,                                       ! Apply Holiday
  DateRange,                              ! Date Specification Type
  1,                                      ! Start Month
  1,                                      ! Start Day
  12,                                     ! End Month
  31;                                     ! End Day

OS:Schedule:Rule,
  {4ec98fb2-c858-401f-8ffd-babbdf57be73}, ! Handle
  Office Misc Occ Rule 2,                 ! Name
  {e86ddd63-bf4e-4bb9-b80f-6ed0079b2cdb}, ! Schedule Ruleset Name
  1,                                      ! Rule Order
  {185ae10b-f394-4b45-b52d-2a6fb086da2d}, ! Day Schedule Name
  No,                                     ! Apply Sunday
  No,                                     ! Apply Monday
  No,                                     ! Apply Tuesday
  No,                                     ! Apply Wednesday
  No,                                     ! Apply Thursday
  No,                                     ! Apply Friday
  Yes,                                    ! Apply Saturday
  ,                                       ! Apply Holiday
  DateRange,                              ! Date Specification Type
  1,                                      ! Start Month
  1,                                      ! Start Day
  12,                                     ! End Month
  31;                                     ! End Day

OS:Schedule:Day,
  {783c8af0-e156-4726-bf8b-ea722815526a}, ! Handle
  Office Bldg Occ Rule 1 Day Schedule 1,  ! Name
  {9d1323c3-9c5c-49a3-ada0-a7b33ba97934}, ! Schedule Type Limits Name
  ,                                       ! Interpolate to Timestep
  24,                                     ! Hour 1
  0,                                      ! Minute 1
  0;                                      ! Value Until Time 1

OS:Schedule:Day,
  {185ae10b-f394-4b45-b52d-2a6fb086da2d}, ! Handle
  Office Bldg Occ Rule 2 Day Schedule 1,  ! Name
  {9d1323c3-9c5c-49a3-ada0-a7b33ba97934}, ! Schedule Type Limits Name
  ,                                       ! Interpolate to Timestep
  6,                                      !- Hour 1
  0,                                      !- Minute 1
  0,                                      !- Value Until Time 1
  8,                                      !- Hour 2
  0,                                      !- Minute 2
  0.100000001490116,                      !- Value Until Time 2
  14,                                     !- Hour 3
  0,                                      !- Minute 3
  0.25,                                   !- Value Until Time 3
  17,                                     !- Hour 4
  0,                                      !- Minute 4
  0.100000001490116,                      !- Value Until Time 4
  24,                                     !- Hour 5
  0,                                      !- Minute 5
  0;                                      !- Value Until Time 5

OS:Schedule:Ruleset,
  {67669df9-d9f4-4cfe-9c20-27734c912768}, ! Handle
  Office Activity,                        ! Name
  {36536646-a166-44b7-93af-47b2d248e3d0}, ! Schedule Type Limits Name
  {38938957-f0b4-41d4-9316-fa9028c37bcc}, ! Default Day Schedule Name
  {e1382358-21e5-4b37-b318-14affba869a3}, ! Summer Design Day Schedule Name
  {394568d8-3151-4b0a-9a55-afa7cd787f76}; ! Winter Design Day Schedule Name

OS:Schedule:Day,
  {38938957-f0b4-41d4-9316-fa9028c37bcc}, ! Handle
  Office Activity Default Schedule,       ! Name
  {36536646-a166-44b7-93af-47b2d248e3d0}, ! Schedule Type Limits Name
  ,                                       ! Interpolate to Timestep
  24,                                     !- Hour 1
  0,                                      !- Minute 1
  132;                                    !- Value Until Time 1

OS:Schedule:Day,
  {e1382358-21e5-4b37-b318-14affba869a3}, ! Handle
  Office Activity Summer Design Day,      ! Name
  {36536646-a166-44b7-93af-47b2d248e3d0}, ! Schedule Type Limits Name
  ,                                       ! Interpolate to Timestep
  24,                                     !- Hour 1
  0,                                      !- Minute 1
  132;                                    !- Value Until Time 1

OS:Schedule:Day,
  {394568d8-3151-4b0a-9a55-afa7cd787f76}, ! Handle
  Office Activity Winter Design Day,      ! Name
  {36536646-a166-44b7-93af-47b2d248e3d0}, ! Schedule Type Limits Name
  ,                                       ! Interpolate to Timestep
  24,                                     !- Hour 1
  0,                                      !- Minute 1
  132;                                    !- Value Until Time 1

OS:Schedule:Ruleset,
  {86e0ef91-9fd2-4584-a251-5af0f446cc38}, ! Handle
  Office Bldg Light,                      ! Name
  {9d1323c3-9c5c-49a3-ada0-a7b33ba97934}, ! Schedule Type Limits Name
  {61754089-a568-4442-9db8-be81a74c6a2f}, ! Default Day Schedule Name
  {00498af9-86b4-46aa-8aef-c4a33842ee6b}, ! Summer Design Day Schedule Name
  {9706cc9d-fb3f-488f-b0ff-a15acaa39c41}; ! Winter Design Day Schedule Name

OS:Schedule:Day,
  {61754089-a568-4442-9db8-be81a74c6a2f}, ! Handle
  Office Bldg Light Default Schedule,     ! Name
  {9d1323c3-9c5c-49a3-ada0-a7b33ba97934}, ! Schedule Type Limits Name
  ,                                       ! Interpolate to Timestep
  5,                                      !- Hour 1
  0,                                      !- Minute 1
  0.05,                                   !- Value Until Time 1
  7,                                      !- Hour 2
  0,                                      !- Minute 2
  0.1,                                    !- Value Until Time 2
  8,                                      !- Hour 3
  0,                                      !- Minute 3
  0.3,                                    !- Value Until Time 3
  17,                                     !- Hour 4
  0,                                      !- Minute 4
  0.9,                                    !- Value Until Time 4
  18,                                     !- Hour 5
  0,                                      !- Minute 5
  0.7,                                    !- Value Until Time 5
  20,                                     !- Hour 6
  0,                                      !- Minute 6
  0.5,                                    !- Value Until Time 6
  22,                                     !- Hour 7
  0,                                      !- Minute 7
  0.3,                                    !- Value Until Time 7
  23,                                     !- Hour 8
  0,                                      !- Minute 8
  0.1,                                    !- Value Until Time 8
  24,                                     !- Hour 9
  0,                                      !- Minute 9
  0.05;                                   !- Value Until Time 9

OS:Schedule:Day,
  {00498af9-86b4-46aa-8aef-c4a33842ee6b}, ! Handle
  Office Bldg Light Summer Design Day,    ! Name
  {9d1323c3-9c5c-49a3-ada0-a7b33ba97934}, ! Schedule Type Limits Name
  ,                                       ! Interpolate to Timestep
  24,                                     ! Hour 1
  0,                                      ! Minute 1
  1;                                      ! Value Until Time 1

OS:Schedule:Day,
  {9706cc9d-fb3f-488f-b0ff-a15acaa39c41}, ! Handle
  Office Bldg Light Winter Design Day,    ! Name
  {9d1323c3-9c5c-49a3-ada0-a7b33ba97934}, ! Schedule Type Limits Name
  ,                                       ! Interpolate to Timestep
  24,                                     ! Hour 1
  0,                                      ! Minute 1
  0;                                      ! Value Until Time 1

OS:Schedule:Rule,
  {00a58db4-3634-474a-8ce4-2449aa013a88}, ! Handle
  Office Bldg Light Rule 1,               ! Name
  {86e0ef91-9fd2-4584-a251-5af0f446cc38}, ! Schedule Ruleset Name
  0,                                      ! Rule Order
  {fc9dca05-5751-4fb1-9ac0-720b77c351d0}, ! Day Schedule Name
  Yes,                                    ! Apply Sunday
  No,                                     ! Apply Monday
  No,                                     ! Apply Tuesday
  No,                                     ! Apply Wednesday
  No,                                     ! Apply Thursday
  No,                                     ! Apply Friday
  No,                                     ! Apply Saturday
  ,                                       ! Apply Holiday
  DateRange,                              ! Date Specification Type
  1,                                      ! Start Month
  1,                                      ! Start Day
  12,                                     ! End Month
  31;                                     ! End Day

OS:Schedule:Rule,
  {04c1904d-f563-45a0-8826-98ce356e98e1}, ! Handle
  Office Bldg Light Rule 2,               ! Name
  {86e0ef91-9fd2-4584-a251-5af0f446cc38}, ! Schedule Ruleset Name
  1,                                      ! Rule Order
  {acdebfbc-c23e-4599-8789-cf33a4d220db}, ! Day Schedule Name
  No,                                     ! Apply Sunday
  No,                                     ! Apply Monday
  No,                                     ! Apply Tuesday
  No,                                     ! Apply Wednesday
  No,                                     ! Apply Thursday
  No,                                     ! Apply Friday
  Yes,                                    ! Apply Saturday
  ,                                       ! Apply Holiday
  DateRange,                              ! Date Specification Type
  1,                                      ! Start Month
  1,                                      ! Start Day
  12,                                     ! End Month
  31;                                     ! End Day

OS:Schedule:Day,
  {fc9dca05-5751-4fb1-9ac0-720b77c351d0}, ! Handle
  Office Bldg Light Rule 1 Day Schedule,  ! Name
  {9d1323c3-9c5c-49a3-ada0-a7b33ba97934}, ! Schedule Type Limits Name
  ,                                       ! Interpolate to Timestep
  24,                                     ! Hour 1
  0,                                      ! Minute 1
  0.050000000000000003;                   ! Value Until Time 1

OS:Schedule:Day,
  {acdebfbc-c23e-4599-8789-cf33a4d220db}, ! Handle
  Office Bldg Light Rule 2 Day Schedule,  ! Name
  {9d1323c3-9c5c-49a3-ada0-a7b33ba97934}, ! Schedule Type Limits Name
  ,                                       ! Interpolate to Timestep
  6,                                      ! Hour 1
  0,                                      ! Minute 1
  0.050000000000000003,                   ! Value Until Time 1
  8,                                      ! Hour 2
  0,                                      ! Minute 2
  0.10000000000000001,                    ! Value Until Time 2
  14,                                     ! Hour 3
  0,                                      ! Minute 3
  0.5,                                    ! Value Until Time 3
  17,                                     ! Hour 4
  0,                                      ! Minute 4
  0.14999999999999999,                    ! Value Until Time 4
  24,                                     ! Hour 5
  0,                                      ! Minute 5
  0.050000000000000003;                   ! Value Until Time 5

OS:Schedule:Ruleset,
  {0bcc44c3-15b8-43fe-833d-5c691dd8c7d4}, ! Handle
  Office Bldg Equip,                      ! Name
  {9d1323c3-9c5c-49a3-ada0-a7b33ba97934}, ! Schedule Type Limits Name
  {2684494d-91e5-4321-bdec-161a4d59a95d}, ! Default Day Schedule Name
  {cbd96a9c-8953-48e9-b7a8-d6ddfdd86d96}, ! Summer Design Day Schedule Name
  {4343673a-fdc5-4d1d-a7eb-43d960e39b9c}; ! Winter Design Day Schedule Name

OS:Schedule:Day,
  {2684494d-91e5-4321-bdec-161a4d59a95d}, ! Handle
  Office Bldg Equip Default Schedule,     ! Name
  {9d1323c3-9c5c-49a3-ada0-a7b33ba97934}, ! Schedule Type Limits Name
  ,                                       ! Interpolate to Timestep
  8,                                      !- Hour 1
  0,                                      !- Minute 1
  0.4,                                    !- Value Until Time 1
  12,                                     !- Hour 2
  0,                                      !- Minute 2
  0.9,                                    !- Value Until Time 2
  13,                                     !- Hour 3
  0,                                      !- Minute 3
  0.8,                                    !- Value Until Time 3
  17,                                     !- Hour 4
  0,                                      !- Minute 4
  0.9,                                    !- Value Until Time 4
  18,                                     !- Hour 5
  0,                                      !- Minute 5
  0.8,                                    !- Value Until Time 5
  20,                                     !- Hour 6
  0,                                      !- Minute 6
  0.6,                                    !- Value Until Time 6
  22,                                     !- Hour 7
  0,                                      !- Minute 7
  0.5,                                    !- Value Until Time 7
  24,                                     !- Hour 8
  0,                                      !- Minute 8
  0.4;                                    !- Value Until Time 8

OS:Schedule:Day,
  {cbd96a9c-8953-48e9-b7a8-d6ddfdd86d96}, ! Handle
  Office Bldg Equip Summer Design Day,    ! Name
  {9d1323c3-9c5c-49a3-ada0-a7b33ba97934}, ! Schedule Type Limits Name
  ,                                       ! Interpolate to Timestep
  24,                                     ! Hour 1
  0,                                      ! Minute 1
  1;                                      ! Value Until Time 1

OS:Schedule:Day,
  {4343673a-fdc5-4d1d-a7eb-43d960e39b9c}, ! Handle
  Office Bldg Equip Winter Design Day,    ! Name
  {9d1323c3-9c5c-49a3-ada0-a7b33ba97934}, ! Schedule Type Limits Name
  ,                                       ! Interpolate to Timestep
  24,                                     ! Hour 1
  0,                                      ! Minute 1
  0;                                      ! Value Until Time 1

OS:Schedule:Rule,
  {c1d71e22-9ccc-4add-bdfa-91ea335849ca}, ! Handle
  Office Bldg Equip Rule 1,               ! Name
  {0bcc44c3-15b8-43fe-833d-5c691dd8c7d4}, ! Schedule Ruleset Name
  0,                                      ! Rule Order
  {c94aa321-2c4b-453b-9779-6f2d85a5b299}, ! Day Schedule Name
  Yes,                                    ! Apply Sunday
  No,                                     ! Apply Monday
  No,                                     ! Apply Tuesday
  No,                                     ! Apply Wednesday
  No,                                     ! Apply Thursday
  No,                                     ! Apply Friday
  No,                                     ! Apply Saturday
  ,                                       ! Apply Holiday
  DateRange,                              ! Date Specification Type
  1,                                      ! Start Month
  1,                                      ! Start Day
  12,                                     ! End Month
  31;                                     ! End Day

OS:Schedule:Rule,
  {87a005ba-ebb8-454e-8755-6f8c364228c2}, ! Handle
  Office Bldg Equip Rule 2,               ! Name
  {0bcc44c3-15b8-43fe-833d-5c691dd8c7d4}, ! Schedule Ruleset Name
  1,                                      ! Rule Order
  {d761f8f5-5c21-48f5-a89b-2f4ff0254633}, ! Day Schedule Name
  No,                                     ! Apply Sunday
  No,                                     ! Apply Monday
  No,                                     ! Apply Tuesday
  No,                                     ! Apply Wednesday
  No,                                     ! Apply Thursday
  No,                                     ! Apply Friday
  Yes,                                    ! Apply Saturday
  ,                                       ! Apply Holiday
  DateRange,                              ! Date Specification Type
  1,                                      ! Start Month
  1,                                      ! Start Day
  12,                                     ! End Month
  31;                                     ! End Day

OS:Schedule:Day,
  {c94aa321-2c4b-453b-9779-6f2d85a5b299}, ! Handle
  Office Bldg Equip Rule 1 Day Schedule,  ! Name
  {9d1323c3-9c5c-49a3-ada0-a7b33ba97934}, ! Schedule Type Limits Name
  ,                                       ! Interpolate to Timestep
  24,                                     ! Hour 1
  0,                                      ! Minute 1
  0.29999999999999999;                    ! Value Until Time 1

OS:Schedule:Day,
  {d761f8f5-5c21-48f5-a89b-2f4ff0254633}, ! Handle
  Office Bldg Equip Rule 2 Day Schedule,  ! Name
  {9d1323c3-9c5c-49a3-ada0-a7b33ba97934}, ! Schedule Type Limits Name
  ,                                       ! Interpolate to Timestep
  6,                                      ! Hour 1
  0,                                      ! Minute 1
  0.29999999999999999,                    ! Value Until Time 1
  8,                                      ! Hour 2
  0,                                      ! Minute 2
  0.40000000000000002,                    ! Value Until Time 2
  14,                                     ! Hour 3
  0,                                      ! Minute 3
  0.5,                                    ! Value Until Time 3
  17,                                     ! Hour 4
  0,                                      ! Minute 4
  0.34999999999999998,                    ! Value Until Time 4
  24,                                     ! Hour 5
  0,                                      ! Minute 5
  0.29999999999999999;                    ! Value Until Time 5

OS:Schedule:Ruleset,
  {62dfac2c-734d-4171-8f22-f1edee4657b6}, ! Handle
  Office Infil Quarter On,                ! Name
  {9d1323c3-9c5c-49a3-ada0-a7b33ba97934}, ! Schedule Type Limits Name
  {935c47bd-86de-466d-a71a-fc04e28127dc}, ! Default Day Schedule Name
  {d85a6d0d-c20a-499d-a5c0-1cf639f3182e}, ! Summer Design Day Schedule Name
  {138ea6eb-0961-45d8-b79c-ce6659aff126}; ! Winter Design Day Schedule Name

OS:Schedule:Day,
  {935c47bd-86de-466d-a71a-fc04e28127dc}, ! Handle
  Office Infil Quarter On Default Schedule, ! Name
  {9d1323c3-9c5c-49a3-ada0-a7b33ba97934}, ! Schedule Type Limits Name
  ,                                       ! Interpolate to Timestep
  6,                                      !- Hour 1
  0,                                      !- Minute 1
  1,                                      !- Value Until Time 1
  22,                                     !- Hour 2
  0,                                      !- Minute 2
  0.25,                                   !- Value Until Time 2
  24,                                     !- Hour 3
  0,                                      !- Minute 3
  1;                                      !- Value Until Time 3

OS:Schedule:Day,
  {d85a6d0d-c20a-499d-a5c0-1cf639f3182e}, ! Handle
  Office Infil Quarter On Summer Design Day, ! Name
  {9d1323c3-9c5c-49a3-ada0-a7b33ba97934}, ! Schedule Type Limits Name
  ,                                       ! Interpolate to Timestep
  6,                                      ! Hour 1
  0,                                      ! Minute 1
  1,                                      ! Value Until Time 1
  22,                                     ! Hour 2
  0,                                      ! Minute 2
  0.25,                                   ! Value Until Time 2
  24,                                     ! Hour 3
  0,                                      ! Minute 3
  1;                                      ! Value Until Time 3

OS:Schedule:Day,
  {138ea6eb-0961-45d8-b79c-ce6659aff126}, ! Handle
  Office Infil Quarter On Winter Design Day, ! Name
  {9d1323c3-9c5c-49a3-ada0-a7b33ba97934}, ! Schedule Type Limits Name
  ,                                       ! Interpolate to Timestep
  6,                                      ! Hour 1
  0,                                      ! Minute 1
  1,                                      ! Value Until Time 1
  18,                                     ! Hour 2
  0,                                      ! Minute 2
  0.25,                                   ! Value Until Time 2
  24,                                     ! Hour 3
  0,                                      ! Minute 3
  1;                                      ! Value Until Time 3

OS:Schedule:Rule,
  {e145c33c-4a03-4fff-9437-9d5f9e9cd66a}, ! Handle
  Office Infil Quarter On Rule 1,         ! Name
  {62dfac2c-734d-4171-8f22-f1edee4657b6}, ! Schedule Ruleset Name
  0,                                      ! Rule Order
  {864682b9-a184-4c68-b651-b29b52e9f48b}, ! Day Schedule Name
  Yes,                                    ! Apply Sunday
  No,                                     ! Apply Monday
  No,                                     ! Apply Tuesday
  No,                                     ! Apply Wednesday
  No,                                     ! Apply Thursday
  No,                                     ! Apply Friday
  No,                                     ! Apply Saturday
  ,                                       ! Apply Holiday
  DateRange,                              ! Date Specification Type
  1,                                      ! Start Month
  1,                                      ! Start Day
  12,                                     ! End Month
  31;                                     ! End Day

OS:Schedule:Rule,
  {8ad40eae-c3d8-4e2a-93dc-619959ceb211}, ! Handle
  Office Infil Quarter On Rule 2,         ! Name
  {62dfac2c-734d-4171-8f22-f1edee4657b6}, ! Schedule Ruleset Name
  1,                                      ! Rule Order
  {bb0f6b43-0c3f-46e0-be1d-d36e59c32e85}, ! Day Schedule Name
  No,                                     ! Apply Sunday
  No,                                     ! Apply Monday
  No,                                     ! Apply Tuesday
  No,                                     ! Apply Wednesday
  No,                                     ! Apply Thursday
  No,                                     ! Apply Friday
  Yes,                                    ! Apply Saturday
  ,                                       ! Apply Holiday
  DateRange,                              ! Date Specification Type
  1,                                      ! Start Month
  1,                                      ! Start Day
  12,                                     ! End Month
  31;                                     ! End Day

OS:Schedule:Day,
  {864682b9-a184-4c68-b651-b29b52e9f48b}, ! Handle
  Office Infil Quarter On Rule 1 Day Schedule, ! Name
  {9d1323c3-9c5c-49a3-ada0-a7b33ba97934}, ! Schedule Type Limits Name
  ,                                       ! Interpolate to Timestep
  24,                                     ! Hour 1
  0,                                      ! Minute 1
  1;                                      ! Value Until Time 1

OS:Schedule:Day,
  {bb0f6b43-0c3f-46e0-be1d-d36e59c32e85}, ! Handle
  Office Infil Quarter On Rule 2 Day Schedule, ! Name
  {9d1323c3-9c5c-49a3-ada0-a7b33ba97934}, ! Schedule Type Limits Name
  ,                                       ! Interpolate to Timestep
  6,                                      ! Hour 1
  0,                                      ! Minute 1
  1,                                      ! Value Until Time 1
  18,                                     ! Hour 2
  0,                                      ! Minute 2
  0.25,                                   ! Value Until Time 2
  24,                                     ! Hour 3
  0,                                      ! Minute 3
  1;                                      ! Value Until Time 3

OS:ScheduleTypeLimits,
  {9d1323c3-9c5c-49a3-ada0-a7b33ba97934}, ! Handle
  Fraction,                               ! Name