
OS:Version,
  {f0b9221d-0d93-45ff-9b27-a801a0832d35}, !- Handle
  1.10.0;                                 !- Version Identifier

OS:Facility,
  {68f6040d-852b-4af5-8977-f89368b4ac29}; !- Handle

OS:Building,
  {e983ab51-27e8-4323-9bf6-04b8c1c75f61}, !- Handle
  Building 1,                             !- Name
  ,                                       !- Building Sector Type
  ,                                       !- North Axis {deg}
  ,                                       !- Nominal Floor to Floor Height {m}
  ,                                       !- Space Type Name
  ,                                       !- Default Construction Set Name
  ;                                       !- Default Schedule Set Name

OS:BuildingStory,
  {fc705e52-6156-41e7-a67f-7d27a9a0aacd}, !- Handle
  Level 1,                                !- Name
  ,                                       !- Nominal Z Coordinate {m}
  ,                                       !- Nominal Floor to Floor Height {m}
  ,                                       !- Default Construction Set Name
  ,                                       !- Default Schedule Set Name
  ;                                       !- Group Rendering Name

OS:BuildingStory,
  {500b4e63-8161-49ef-abd4-a20b619290d4}, !- Handle
  Level 1 Plenum,                         !- Name
  ,                                       !- Nominal Z Coordinate {m}
  2.7342,                                 !- Nominal Floor to Floor Height {m}
  ,                                       !- Default Construction Set Name
  ,                                       !- Default Schedule Set Name
  ;                                       !- Group Rendering Name

OS:BuildingStory,
  {7ac10e62-3eb9-47fe-b4f0-58bc227733c5}, !- Handle
  Level 2,                                !- Name
  ,                                       !- Nominal Z Coordinate {m}
  3.9624,                                 !- Nominal Floor to Floor Height {m}
  ,                                       !- Default Construction Set Name
  ,                                       !- Default Schedule Set Name
  ;                                       !- Group Rendering Name

OS:BuildingStory,
  {fd17d35d-1227-489f-8760-cdf73b7d1ae9}, !- Handle
  Level 2 Plenum,                         !- Name
  ,                                       !- Nominal Z Coordinate {m}
  6.7056,                                 !- Nominal Floor to Floor Height {m}
  ,                                       !- Default Construction Set Name
  ,                                       !- Default Schedule Set Name
  ;                                       !- Group Rendering Name

OS:BuildingStory,
  {024f1905-738e-4333-85ab-dbde444846ef}, !- Handle
  Level 3,                                !- Name
  ,                                       !- Nominal Z Coordinate {m}
  7.9248,                                 !- Nominal Floor to Floor Height {m}
  ,                                       !- Default Construction Set Name
  ,                                       !- Default Schedule Set Name
  ;                                       !- Group Rendering Name

OS:BuildingStory,
  {91775ca3-3d1b-46b0-8c28-9d740e90089d}, !- Handle
  Level 3 Plenum,                         !- Name
  ,                                       !- Nominal Z Coordinate {m}
  10.668,                                 !- Nominal Floor to Floor Height {m}
  ,                                       !- Default Construction Set Name
  ,                                       !- Default Schedule Set Name
  ;                                       !- Group Rendering Name

OS:BuildingStory,
  {a8244354-00d6-4a7b-aaf0-56b373974ea0}, !- Handle
  Roof Level,                             !- Name
  ,                                       !- Nominal Z Coordinate {m}
  11.8872,                                !- Nominal Floor to Floor Height {m}
  ,                                       !- Default Construction Set Name
  ,                                       !- Default Schedule Set Name
  ;                                       !- Group Rendering Name

OS:Space,
  {40eb34f4-59b2-46cd-9ddf-eaaf32fa4b33}, !- Handle
  Space_zone_0,                           !- Name
  ,                                       !- Space Type Name
  ,                                       !- Default Construction Set Name
  ,                                       !- Default Schedule Set Name
  ,                                       !- Direction of Relative North {deg}
  ,                                       !- X Origin {m}
  ,                                       !- Y Origin {m}
  ,                                       !- Z Origin {m}
  {fc705e52-6156-41e7-a67f-7d27a9a0aacd}, !- Building Story Name
  {1526b4da-6d49-4e46-9a90-92b2533321a2}; !- Thermal Zone Name

OS:Surface,
  {a925a5a7-34d3-4100-bdfc-629f72427392}, !- Handle
  Surface 1,                              !- Name
  Floor,                                  !- Surface Type
  ,                                       !- Construction Name
  {40eb34f4-59b2-46cd-9ddf-eaaf32fa4b33}, !- Space Name
  Ground,                                 !- Outside Boundary Condition
  ,                                       !- Outside Boundary Condition Object
  NoSun,                                  !- Sun Exposure
  NoWind,                                 !- Wind Exposure
  ,                                       !- View Factor to Ground
  ,                                       !- Number of Vertices
  0, 0, 0,                                !- X,Y,Z Vertex 1 {m}
  4.5732, 4.5732, 0,                      !- X,Y,Z Vertex 2 {m}
  45.337799, 4.5732, 0,                   !- X,Y,Z Vertex 3 {m}
  49.910999, 0, 0;                        !- X,Y,Z Vertex 4 {m}

OS:Surface,
  {1d2fc31b-e0ff-477d-b94f-5592f9d4ddb7}, !- Handle
  Surface 2,                              !- Name
  RoofCeiling,                            !- Surface Type
  ,                                       !- Construction Name
  {40eb34f4-59b2-46cd-9ddf-eaaf32fa4b33}, !- Space Name
  Outdoors,                               !- Outside Boundary Condition
  ,                                       !- Outside Boundary Condition Object
  SunExposed,                             !- Sun Exposure
  WindExposed,                            !- Wind Exposure
  ,                                       !- View Factor to Ground
  ,                                       !- Number of Vertices
  0, 0, 2.7432,                           !- X,Y,Z Vertex 1 {m}
  49.910999, 0, 2.7432,                   !- X,Y,Z Vertex 2 {m}
  45.337799, 4.5732, 2.7432,              !- X,Y,Z Vertex 3 {m}
  4.5732, 4.5732, 2.7432;                 !- X,Y,Z Vertex 4 {m}

OS:Surface,
  {515f54d9-c562-426c-ba44-761f8c56fe87}, !- Handle
  Surface 3,                              !- Name
  Wall,                                   !- Surface Type
  ,                                       !- Construction Name
  {40eb34f4-59b2-46cd-9ddf-eaaf32fa4b33}, !- Space Name
  Surface,                                !- Outside Boundary Condition
  {8830a97b-c671-4dc2-a031-978181eff9bf}, !- Outside Boundary Condition Object
  NoSun,                                  !- Sun Exposure
  NoWind,                                 !- Wind Exposure
  ,                                       !- View Factor to Ground
  ,                                       !- Number of Vertices
  4.5732, 4.5732, 0,                      !- X,Y,Z Vertex 1 {m}
  0, 0, 0,                                !- X,Y,Z Vertex 2 {m}
  0, 0, 2.7432,                           !- X,Y,Z Vertex 3 {m}
  4.5732, 4.5732, 2.7432;                 !- X,Y,Z Vertex 4 {m}

OS:Surface,
  {0d20de63-01f0-4a0e-b2dd-2b25ccea4369}, !- Handle
  Surface 4,                              !- Name
  Wall,                                   !- Surface Type
  ,                                       !- Construction Name
  {40eb34f4-59b2-46cd-9ddf-eaaf32fa4b33}, !- Space Name
  Outdoors,                               !- Outside Boundary Condition
  ,                                       !- Outside Boundary Condition Object
  SunExposed,                             !- Sun Exposure
  WindExposed,                            !- Wind Exposure
  ,                                       !- View Factor to Ground
  ,                                       !- Number of Vertices
  0, 0, 0,                                !- X,Y,Z Vertex 1 {m}
  49.910999, 0, 0,                        !- X,Y,Z Vertex 2 {m}
  49.910999, 0, 2.7432,                   !- X,Y,Z Vertex 3 {m}
  0, 0, 2.7432;                           !- X,Y,Z Vertex 4 {m}

OS:SubSurface,
  {69aa43a9-9da4-4ff7-bd91-8bb10b6e94bd}, !- Handle
  Sub Surface 1,                          !- Name
  FixedWindow,                            !- Sub Surface Type
  ,                                       !- Construction Name
  {0d20de63-01f0-4a0e-b2dd-2b25ccea4369}, !- Surface Name
  ,                                       !- Outside Boundary Condition Object
  ,                                       !- View Factor to Ground
  ,                                       !- Shading Control Name
  ,                                       !- Frame and Divider Name
  ,                                       !- Multiplier
  ,                                       !- Number of Vertices
  0.49911, 0, 0.91472,                    !- X,Y,Z Vertex 1 {m}
  49.411888, 0, 0.91472,                  !- X,Y,Z Vertex 2 {m}
  49.411888, 0, 2.532088,                 !- X,Y,Z Vertex 3 {m}
  0.49911, 0, 2.532088;                   !- X,Y,Z Vertex 4 {m}

OS:Surface,
  {08a1f5c5-34e1-4a77-9476-c4ccf2d17fd5}, !- Handle
  Surface 5,                              !- Name
  Wall,                                   !- Surface Type
  ,                                       !- Construction Name
  {40eb34f4-59b2-46cd-9ddf-eaaf32fa4b33}, !- Space Name
  Surface,                                !- Outside Boundary Condition
  {3faeb31b-9176-4bae-89d7-572a09d2dbac}, !- Outside Boundary Condition Object
  NoSun,                                  !- Sun Exposure
  NoWind,                                 !- Wind Exposure
  ,                                       !- View Factor to Ground
  ,                                       !- Number of Vertices
  49.910999, 0, 0,                        !- X,Y,Z Vertex 1 {m}
  45.337799, 4.5732, 0,                   !- X,Y,Z Vertex 2 {m}
  45.337799, 4.5732, 2.7432,              !- X,Y,Z Vertex 3 {m}
  49.910999, 0, 2.7432;                   !- X,Y,Z Vertex 4 {m}

OS:Surface,
  {3ae8c318-ea85-43fd-853d-11dff89ecb6f}, !- Handle
  Surface 6,                              !- Name
  Wall,                                   !- Surface Type
  ,                                       !- Construction Name
  {40eb34f4-59b2-46cd-9ddf-eaaf32fa4b33}, !- Space Name
  Surface,                                !- Outside Boundary Condition
  {b397e77a-70f2-43d6-b6f6-cfe714d0d716}, !- Outside Boundary Condition Object
  NoSun,                                  !- Sun Exposure
  NoWind,                                 !- Wind Exposure
  ,                                       !- View Factor to Ground
  ,                                       !- Number of Vertices
  45.337799, 4.5732, 0,                   !- X,Y,Z Vertex 1 {m}
  4.5732, 4.5732, 0,                      !- X,Y,Z Vertex 2 {m}
  4.5732, 4.5732, 2.7432,                 !- X,Y,Z Vertex 3 {m}
  45.337799, 4.5732, 2.7432;              !- X,Y,Z Vertex 4 {m}

OS:Space,
  {d37792a3-f131-4219-9ee1-c818aa12f02d}, !- Handle
  Space_zone_1,                           !- Name
  ,                                       !- Space Type Name
  ,                                       !- Default Construction Set Name
  ,                                       !- Default Schedule Set Name
  ,                                       !- Direction of Relative North {deg}
  ,                                       !- X Origin {m}
  ,                                       !- Y Origin {m}
  ,                                       !- Z Origin {m}
  {fc705e52-6156-41e7-a67f-7d27a9a0aacd}, !- Building Story Name
  {6b07cb56-c220-47df-8add-c3a4000c5d4f}; !- Thermal Zone Name

OS:Surface,
  {0fb065e4-5927-454b-b6d7-29855a309d3f}, !- Handle
  Surface 7,                              !- Name
  Floor,                                  !- Surface Type
  ,                                       !- Construction Name
  {d37792a3-f131-4219-9ee1-c818aa12f02d}, !- Space Name
  Ground,                                 !- Outside Boundary Condition
  ,                                       !- Outside Boundary Condition Object
  NoSun,                                  !- Sun Exposure
  NoWind,                                 !- Wind Exposure
  ,                                       !- View Factor to Ground
  ,                                       !- Number of Vertices
  45.337799, 4.5732, 0,                   !- X,Y,Z Vertex 1 {m}
  45.337799, 28.7006, 0,                  !- X,Y,Z Vertex 2 {m}
  49.910999, 33.2738, 0,                  !- X,Y,Z Vertex 3 {m}
  49.910999, 0, 0;                        !- X,Y,Z Vertex 4 {m}

OS:Surface,
  {2036decf-a451-41be-be96-dc69bb11778a}, !- Handle
  Surface 8,                              !- Name
  RoofCeiling,                            !- Surface Type
  ,                                       !- Construction Name
  {d37792a3-f131-4219-9ee1-c818aa12f02d}, !- Space Name
  Outdoors,                               !- Outside Boundary Condition
  ,                                       !- Outside Boundary Condition Object
  SunExposed,                             !- Sun Exposure
  WindExposed,                            !- Wind Exposure
  ,                                       !- View Factor to Ground
  ,                                       !- Number of Vertices
  45.337799, 4.5732, 2.7432,              !- X,Y,Z Vertex 1 {m}
  49.910999, 0, 2.7432,                   !- X,Y,Z Vertex 2 {m}
  49.910999, 33.2738, 2.7432,             !- X,Y,Z Vertex 3 {m}
  45.337799, 28.7006, 2.7432;             !- X,Y,Z Vertex 4 {m}

OS:Surface,
  {8e4d1709-7e82-4bb7-bee6-315276766ef2}, !- Handle
  Surface 9,                              !- Name
  Wall,                                   !- Surface Type
  ,                                       !- Construction Name
  {d37792a3-f131-4219-9ee1-c818aa12f02d}, !- Space Name
  Surface,                                !- Outside Boundary Condition
  {9c62709f-6c0b-436f-bf2a-2a45b443d366}, !- Outside Boundary Condition Object
  NoSun,                                  !- Sun Exposure
  NoWind,                                 !- Wind Exposure
  ,                                       !- View Factor to Ground
  ,                                       !- Number of Vertices
  45.337799, 28.7006, 0,                  !- X,Y,Z Vertex 1 {m}
  45.337799, 4.5732, 0,                   !- X,Y,Z Vertex 2 {m}
  45.337799, 4.5732, 2.7432,              !- X,Y,Z Vertex 3 {m}
  45.337799, 28.7006, 2.7432;             !- X,Y,Z Vertex 4 {m}

OS:Surface,
  {3faeb31b-9176-4bae-89d7-572a09d2dbac}, !- Handle
  Surface 10,                             !- Name
  Wall,                                   !- Surface Type
  ,                                       !- Construction Name
  {d37792a3-f131-4219-9ee1-c818aa12f02d}, !- Space Name
  Surface,                                !- Outside Boundary Condition
  {08a1f5c5-34e1-4a77-9476-c4ccf2d17fd5}, !- Outside Boundary Condition Object
  NoSun,                                  !- Sun Exposure
  NoWind,                                 !- Wind Exposure
  ,                                       !- View Factor to Ground
  ,                                       !- Number of Vertices
  45.337799, 4.5732, 0,                   !- X,Y,Z Vertex 1 {m}
  49.910999, 0, 0,                        !- X,Y,Z Vertex 2 {m}
  49.910999, 0, 2.7432,                   !- X,Y,Z Vertex 3 {m}
  45.337799, 4.5732, 2.7432;              !- X,Y,Z Vertex 4 {m}

OS:Surface,
  {33fc29f6-ebea-4dca-b500-79a7b994c6cc}, !- Handle
  Surface 11,                             !- Name
  Wall,                                   !- Surface Type
  ,                                       !- Construction Name
  {d37792a3-f131-4219-9ee1-c818aa12f02d}, !- Space Name
  Outdoors,                               !- Outside Boundary Condition
  ,                                       !- Outside Boundary Condition Object
  SunExposed,                             !- Sun Exposure
  WindExposed,                            !- Wind Exposure
  ,                                       !- View Factor to Ground
  ,                                       !- Number of Vertices
  49.910999, 0, 0,                        !- X,Y,Z Vertex 1 {m}
  49.910999, 33.2738, 0,                  !- X,Y,Z Vertex 2 {m}
  49.910999, 33.2738, 2.7432,             !- X,Y,Z Vertex 3 {m}
  49.910999, 0, 2.7432;                   !- X,Y,Z Vertex 4 {m}

OS:SubSurface,
  {6f64a25b-aac0-4809-b0c5-fd43905292be}, !- Handle
  Sub Surface 2,                          !- Name
  FixedWindow,                            !- Sub Surface Type
  ,                                       !- Construction Name
  {33fc29f6-ebea-4dca-b500-79a7b994c6cc}, !- Surface Name
  ,                                       !- Outside Boundary Condition Object
  ,                                       !- View Factor to Ground
  ,                                       !- Shading Control Name
  ,                                       !- Frame and Divider Name
  ,                                       !- Multiplier
  ,                                       !- Number of Vertices
  49.910999, 0.332738, 0.91472,           !- X,Y,Z Vertex 1 {m}
  49.910999, 32.941063, 0.91472,          !- X,Y,Z Vertex 2 {m}
  49.910999, 32.941063, 2.532088,         !- X,Y,Z Vertex 3 {m}
  49.910999, 0.332738, 2.532088;          !- X,Y,Z Vertex 4 {m}

OS:Surface,
  {d64336d4-6a6e-4c3b-95c4-ba304b164ed4}, !- Handle
  Surface 12,                             !- Name
  Wall,                                   !- Surface Type
  ,                                       !- Construction Name
  {d37792a3-f131-4219-9ee1-c818aa12f02d}, !- Space Name
  Surface,                                !- Outside Boundary Condition
  {9b959ff5-ac3c-4766-8dee-a9583e81f138}, !- Outside Boundary Condition Object
  NoSun,                                  !- Sun Exposure
  NoWind,                                 !- Wind Exposure
  ,                                       !- View Factor to Ground
  ,                                       !- Number of Vertices
  49.910999, 33.2738, 0,                  !- X,Y,Z Vertex 1 {m}
  45.337799, 28.7006, 0,                  !- X,Y,Z Vertex 2 {m}
  45.337799, 28.7006, 2.7432,             !- X,Y,Z Vertex 3 {m}
  49.910999, 33.2738, 2.7432;             !- X,Y,Z Vertex 4 {m}

OS:Space,
  {13b594ce-722a-45fe-895a-641e49526659}, !- Handle
  Space_zone_2,                           !- Name
  ,                                       !- Space Type Name
  ,                                       !- Default Construction Set Name
  ,                                       !- Default Schedule Set Name
  ,                                       !- Direction of Relative North {deg}
  ,                                       !- X Origin {m}
  ,                                       !- Y Origin {m}
  ,                                       !- Z Origin {m}
  {fc705e52-6156-41e7-a67f-7d27a9a0aacd}, !- Building Story Name
  {538deb79-2e33-4413-a9b4-c2a0f94df831}; !- Thermal Zone Name

OS:Surface,
  {a6b913c7-500a-4c17-a0b2-289a70a66db4}, !- Handle
  Surface 13,                             !- Name
  Floor,                                  !- Surface Type
  ,                                       !- Construction Name
  {13b594ce-722a-45fe-895a-641e49526659}, !- Space Name
  Ground,                                 !- Outside Boundary Condition
  ,                                       !- Outside Boundary Condition Object
  NoSun,                                  !- Sun Exposure
  NoWind,                                 !- Wind Exposure
  ,                                       !- View Factor to Ground
  ,                                       !- Number of Vertices
  4.5732, 28.7006, 0,                     !- X,Y,Z Vertex 1 {m}
  0, 33.2738, 0,                          !- X,Y,Z Vertex 2 {m}
  49.910999, 33.2738, 0,                  !- X,Y,Z Vertex 3 {m}
  45.337799, 28.7006, 0;                  !- X,Y,Z Vertex 4 {m}

OS:Surface,
  {22d082c1-f06e-4d5c-9f4d-c67e71f878c5}, !- Handle
  Surface 14,                             !- Name
  RoofCeiling,                            !- Surface Type
  ,                                       !- Construction Name
  {13b594ce-722a-45fe-895a-641e49526659}, !- Space Name
  Outdoors,                               !- Outside Boundary Condition
  ,                                       !- Outside Boundary Condition Object
  SunExposed,                             !- Sun Exposure
  WindExposed,                            !- Wind Exposure
  ,                                       !- View Factor to Ground
  ,                                       !- Number of Vertices
  4.5732, 28.7006, 2.7432,                !- X,Y,Z Vertex 1 {m}
  45.337799, 28.7006, 2.7432,             !- X,Y,Z Vertex 2 {m}
  49.910999, 33.2738, 2.7432,             !- X,Y,Z Vertex 3 {m}
  0, 33.2738, 2.7432;                     !- X,Y,Z Vertex 4 {m}

OS:Surface,
  {480c5801-f207-4ab9-8dfb-098a77dc8794}, !- Handle
  Surface 15,                             !- Name
  Wall,                                   !- Surface Type
  ,                                       !- Construction Name
  {13b594ce-722a-45fe-895a-641e49526659}, !- Space Name
  Surface,                                !- Outside Boundary Condition
  {1d9aee76-de75-49bb-aba3-65daca15767a}, !- Outside Boundary Condition Object
  NoSun,                                  !- Sun Exposure
  NoWind,                                 !- Wind Exposure
  ,                                       !- View Factor to Ground
  ,                                       !- Number of Vertices
  0, 33.2738, 0,                          !- X,Y,Z Vertex 1 {m}
  4.5732, 28.7006, 0,                     !- X,Y,Z Vertex 2 {m}
  4.5732, 28.7006, 2.7432,                !- X,Y,Z Vertex 3 {m}
  0, 33.2738, 2.7432;                     !- X,Y,Z Vertex 4 {m}

OS:Surface,
  {940c06ab-1e8d-4373-a1da-366648bf536b}, !- Handle
  Surface 16,                             !- Name
  Wall,                                   !- Surface Type
  ,                                       !- Construction Name
  {13b594ce-722a-45fe-895a-641e49526659}, !- Space Name
  Surface,                                !- Outside Boundary Condition
  {7abd89ce-b7ed-4eb9-868f-d3baa29ab56e}, !- Outside Boundary Condition Object
  NoSun,                                  !- Sun Exposure
  NoWind,                                 !- Wind Exposure
  ,                                       !- View Factor to Ground
  ,                                       !- Number of Vertices
  4.5732, 28.7006, 0,                     !- X,Y,Z Vertex 1 {m}
  45.337799, 28.7006, 0,                  !- X,Y,Z Vertex 2 {m}
  45.337799, 28.7006, 2.7432,             !- X,Y,Z Vertex 3 {m}
  4.5732, 28.7006, 2.7432;                !- X,Y,Z Vertex 4 {m}

OS:Surface,
  {9b959ff5-ac3c-4766-8dee-a9583e81f138}, !- Handle
  Surface 17,                             !- Name
  Wall,                                   !- Surface Type
  ,                                       !- Construction Name
  {13b594ce-722a-45fe-895a-641e49526659}, !- Space Name
  Surface,                                !- Outside Boundary Condition
  {d64336d4-6a6e-4c3b-95c4-ba304b164ed4}, !- Outside Boundary Condition Object
  NoSun,                                  !- Sun Exposure
  NoWind,                                 !- Wind Exposure
  ,                                       !- View Factor to Ground
  ,                                       !- Number of Vertices
  45.337799, 28.7006, 0,                  !- X,Y,Z Vertex 1 {m}
  49.910999, 33.2738, 0,                  !- X,Y,Z Vertex 2 {m}
  49.910999, 33.2738, 2.7432,             !- X,Y,Z Vertex 3 {m}
  45.337799, 28.7006, 2.7432;             !- X,Y,Z Vertex 4 {m}

OS:Surface,
  {20aa252d-11fa-4555-b167-23d60eea48a5}, !- Handle
  Surface 18,                             !- Name
  Wall,                                   !- Surface Type
  ,                                       !- Construction Name
  {13b594ce-722a-45fe-895a-641e49526659}, !- Space Name
  Outdoors,                               !- Outside Boundary Condition
  ,                                       !- Outside Boundary Condition Object
  SunExposed,                             !- Sun Exposure
  WindExposed,                            !- Wind Exposure
  ,                                       !- View Factor to Ground
  ,                                       !- Number of Vertices
  49.910999, 33.2738, 0,                  !- X,Y,Z Vertex 1 {m}
  0, 33.2738, 0,                          !- X,Y,Z Vertex 2 {m}
  0, 33.2738, 2.7432,                     !- X,Y,Z Vertex 3 {m}
  49.910999, 33.2738, 2.7432;             !- X,Y,Z Vertex 4 {m}

OS:SubSurface,
  {121b8633-c2c2-4696-a3dc-0f2e3981f3ff}, !- Handle
  Sub Surface 3,                          !- Name
  FixedWindow,                            !- Sub Surface Type
  ,                                       !- Construction Name
  {20aa252d-11fa-4555-b167-23d60eea48a5}, !- Surface Name
  ,                                       !- Outside Boundary Condition Object
  ,                                       !- View Factor to Ground
  ,                                       !- Shading Control Name
  ,                                       !- Frame and Divider Name
  ,                                       !- Multiplier
  ,                                       !- Number of Vertices
  49.411888, 33.2738, 0.91472,            !- X,Y,Z Vertex 1 {m}
  0.49911, 33.2738, 0.91472,              !- X,Y,Z Vertex 2 {m}
  0.49911, 33.2738, 2.532088,             !- X,Y,Z Vertex 3 {m}
  49.411888, 33.2738, 2.532088;           !- X,Y,Z Vertex 4 {m}

OS:Space,
  {6194a642-8a16-4efc-b573-ef3c512acd11}, !- Handle
  Space_zone_3,                           !- Name
  ,                                       !- Space Type Name
  ,                                       !- Default Construction Set Name
  ,                                       !- Default Schedule Set Name
  ,                                       !- Direction of Relative North {deg}
  ,                                       !- X Origin {m}
  ,                                       !- Y Origin {m}
  ,                                       !- Z Origin {m}
  {fc705e52-6156-41e7-a67f-7d27a9a0aacd}, !- Building Story Name
  {790d7bff-e260-4732-9c40-25dc12a2cbc9}; !- Thermal Zone Name

OS:Surface,
  {25522003-8587-493b-96a8-071c3c3d5e86}, !- Handle
  Surface 19,                             !- Name
  Floor,                                  !- Surface Type
  ,                                       !- Construction Name
  {6194a642-8a16-4efc-b573-ef3c512acd11}, !- Space Name
  Ground,                                 !- Outside Boundary Condition
  ,                                       !- Outside Boundary Condition Object
  NoSun,                                  !- Sun Exposure
  NoWind,                                 !- Wind Exposure
  ,                                       !- View Factor to Ground
  ,                                       !- Number of Vertices
  0, 0, 0,                                !- X,Y,Z Vertex 1 {m}
  0, 33.2738, 0,                          !- X,Y,Z Vertex 2 {m}
  4.5732, 28.7006, 0,                     !- X,Y,Z Vertex 3 {m}
  4.5732, 4.5732, 0;                      !- X,Y,Z Vertex 4 {m}

OS:Surface,
  {d1c86a56-620f-41fe-b802-1687d9e9a38e}, !- Handle
  Surface 20,                             !- Name
  RoofCeiling,                            !- Surface Type
  ,                                       !- Construction Name
  {6194a642-8a16-4efc-b573-ef3c512acd11}, !- Space Name
  Outdoors,                               !- Outside Boundary Condition
  ,                                       !- Outside Boundary Condition Object
  SunExposed,                             !- Sun Exposure
  WindExposed,                            !- Wind Exposure
  ,                                       !- View Factor to Ground
  ,                                       !- Number of Vertices
  0, 0, 2.7432,                           !- X,Y,Z Vertex 1 {m}
  4.5732, 4.5732, 2.7432,                 !- X,Y,Z Vertex 2 {m}
  4.5732, 28.7006, 2.7432,                !- X,Y,Z Vertex 3 {m}
  0, 33.2738, 2.7432;                     !- X,Y,Z Vertex 4 {m}

OS:Surface,
  {fddb4263-86e4-4b91-8068-0c288c91e25f}, !- Handle
  Surface 21,                             !- Name
  Wall,                                   !- Surface Type
  ,                                       !- Construction Name
  {6194a642-8a16-4efc-b573-ef3c512acd11}, !- Space Name
  Outdoors,                               !- Outside Boundary Condition
  ,                                       !- Outside Boundary Condition Object
  SunExposed,                             !- Sun Exposure
  WindExposed,                            !- Wind Exposure
  ,                                       !- View Factor to Ground
  ,                                       !- Number of Vertices
  0, 33.2738, 0,                          !- X,Y,Z Vertex 1 {m}
  0, 0, 0,                                !- X,Y,Z Vertex 2 {m}
  0, 0, 2.7432,                           !- X,Y,Z Vertex 3 {m}
  0, 33.2738, 2.7432;                     !- X,Y,Z Vertex 4 {m}

OS:SubSurface,
  {4cba3cc2-7ef5-4b52-a85c-45a3505bee5b}, !- Handle
  Sub Surface 4,                          !- Name
  FixedWindow,                            !- Sub Surface Type
  ,                                       !- Construction Name
  {fddb4263-86e4-4b91-8068-0c288c91e25f}, !- Surface Name