
OS:Version,
  {fe0eeb8a-4602-4140-98e1-3cf1eb47b3bf}, !- Handle
  1.9.0;                                  !- Version Identifier

OS:Facility,
  {f876c0b6-c1eb-4279-87ad-75fd6b6162a1}; !- Handle

OS:Building,
  {7ad342e8-e809-43ee-add0-6dd91f5f7416}, !- Handle
  Building 1,                             !- Name
  ,                                       !- Building Sector Type
  ,                                       !- North Axis {deg}
  ,                                       !- Nominal Floor to Floor Height {m}
  ,                                       !- Space Type Name
  ,                                       !- Default Construction Set Name
  ;                                       !- Default Schedule Set Name

OS:BuildingStory,
  {29ea71c9-df9b-4fd3-9c8b-bd92663a9ef5}, !- Handle
  Level 1,                                !- Name
  ,                                       !- Nominal Z Coordinate {m}
  ,                                       !- Nominal Floor to Floor Height {m}
  ,                                       !- Default Construction Set Name
  ,                                       !- Default Schedule Set Name
  ;                                       !- Group Rendering Name

OS:BuildingStory,
  {6eba3ef9-34da-4efe-af95-53cafdf0721c}, !- Handle
  Level 1 Plenum,                         !- Name
  ,                                       !- Nominal Z Coordinate {m}
  2.7342,                                 !- Nominal Floor to Floor Height {m}
  ,                                       !- Default Construction Set Name
  ,                                       !- Default Schedule Set Name
  ;                                       !- Group Rendering Name

OS:BuildingStory,
  {89ecd224-710a-473f-8849-87fbb021d13f}, !- Handle
  Level 2,                                !- Name
  ,                                       !- Nominal Z Coordinate {m}
  3.9624,                                 !- Nominal Floor to Floor Height {m}
  ,                                       !- Default Construction Set Name
  ,                                       !- Default Schedule Set Name
  ;                                       !- Group Rendering Name

OS:BuildingStory,
  {8eaebde0-ca0a-4556-9893-a0945b6760f9}, !- Handle
  Level 2 Plenum,                         !- Name
  ,                                       !- Nominal Z Coordinate {m}
  6.7056,                                 !- Nominal Floor to Floor Height {m}
  ,                                       !- Default Construction Set Name
  ,                                       !- Default Schedule Set Name
  ;                                       !- Group Rendering Name

OS:BuildingStory,
  {ccd53064-489f-45f4-9853-716a35b70aff}, !- Handle
  Level 3,                                !- Name
  ,                                       !- Nominal Z Coordinate {m}
  7.9248,                                 !- Nominal Floor to Floor Height {m}
  ,                                       !- Default Construction Set Name
  ,                                       !- Default Schedule Set Name
  ;                                       !- Group Rendering Name

OS:BuildingStory,
  {85e04a5d-685d-4d59-a534-3bd5981de577}, !- Handle
  Level 3 Plenum,                         !- Name
  ,                                       !- Nominal Z Coordinate {m}
  10.668,                                 !- Nominal Floor to Floor Height {m}
  ,                                       !- Default Construction Set Name
  ,                                       !- Default Schedule Set Name
  ;                                       !- Group Rendering Name

OS:BuildingStory,
  {f706b787-d079-48fd-82de-4756ff89ece6}, !- Handle
  Roof Level,                             !- Name
  ,                                       !- Nominal Z Coordinate {m}
  11.8872,                                !- Nominal Floor to Floor Height {m}
  ,                                       !- Default Construction Set Name
  ,                                       !- Default Schedule Set Name
  ;                                       !- Group Rendering Name

OS:Space,
  {b943fcf6-ca24-45d1-ad28-d6f8dec794be}, !- Handle
  Space_zone_0,                           !- Name
  ,                                       !- Space Type Name
  ,                                       !- Default Construction Set Name
  ,                                       !- Default Schedule Set Name
  ,                                       !- Direction of Relative North {deg}
  ,                                       !- X Origin {m}
  ,                                       !- Y Origin {m}
  ,                                       !- Z Origin {m}
  {29ea71c9-df9b-4fd3-9c8b-bd92663a9ef5}, !- Building Story Name
  {9a18aad8-3c32-4843-8a87-036221b87ef6}; !- Thermal Zone Name

OS:Surface,
  {36db1cb4-97bd-447e-9d1d-c86f31fcb67d}, !- Handle
  Surface 1,                              !- Name
  Floor,                                  !- Surface Type
  ,                                       !- Construction Name
  {b943fcf6-ca24-45d1-ad28-d6f8dec794be}, !- Space Name
  Ground,                                 !- Outside Boundary Condition
  ,                                       !- Outside Boundary Condition Object
  NoSun,                                  !- Sun Exposure
  NoWind,                                 !- Wind Exposure
  ,                                       !- View Factor to Ground
  ,                                       !- Number of Vertices
  0, 0, 0,                                !- X,Y,Z Vertex 1 {m}
  4.5732, 4.5372, 0,                      !- X,Y,Z Vertex 2 {m}
  45.337799, 4.5372, 0,                   !- X,Y,Z Vertex 3 {m}
  49.910999, 0, 0;                        !- X,Y,Z Vertex 4 {m}

OS:Surface,
  {9c8f5434-733e-4ab3-b1b2-53c0388bac39}, !- Handle
  Surface 2,                              !- Name
  RoofCeiling,                            !- Surface Type
  ,                                       !- Construction Name
  {b943fcf6-ca24-45d1-ad28-d6f8dec794be}, !- Space Name
  Outdoors,                               !- Outside Boundary Condition
  ,                                       !- Outside Boundary Condition Object
  SunExposed,                             !- Sun Exposure
  WindExposed,                            !- Wind Exposure
  ,                                       !- View Factor to Ground
  ,                                       !- Number of Vertices
  0, 0, 2.7432,                           !- X,Y,Z Vertex 1 {m}
  49.910999, 0, 2.7432,                   !- X,Y,Z Vertex 2 {m}
  45.337799, 4.5372, 2.7432,              !- X,Y,Z Vertex 3 {m}
  4.5732, 4.5372, 2.7432;                 !- X,Y,Z Vertex 4 {m}

OS:Surface,
  {6f36a3d1-c174-4869-ad61-12d8384c56ff}, !- Handle
  Surface 3,                              !- Name
  Wall,                                   !- Surface Type
  ,                                       !- Construction Name
  {b943fcf6-ca24-45d1-ad28-d6f8dec794be}, !- Space Name
  Surface,                                !- Outside Boundary Condition
  {26211a86-3636-4fdf-b5d7-0fc6cf5c95b9}, !- Outside Boundary Condition Object
  NoSun,                                  !- Sun Exposure
  NoWind,                                 !- Wind Exposure
  ,                                       !- View Factor to Ground
  ,                                       !- Number of Vertices
  4.5732, 4.5732, 0,                      !- X,Y,Z Vertex 1 {m}
  0, 0, 0,                                !- X,Y,Z Vertex 2 {m}
  0, 0, 2.7432,                           !- X,Y,Z Vertex 3 {m}
  4.5732, 4.5732, 2.7432;                 !- X,Y,Z Vertex 4 {m}

OS:Surface,
  {f0444e10-cead-4412-9927-ae4c0dd98499}, !- Handle
  Surface 4,                              !- Name
  Wall,                                   !- Surface Type
  ,                                       !- Construction Name
  {b943fcf6-ca24-45d1-ad28-d6f8dec794be}, !- Space Name
  Outdoors,                               !- Outside Boundary Condition
  ,                                       !- Outside Boundary Condition Object
  SunExposed,                             !- Sun Exposure
  WindExposed,                            !- Wind Exposure
  ,                                       !- View Factor to Ground
  ,                                       !- Number of Vertices
  0, 0, 0,                                !- X,Y,Z Vertex 1 {m}
  49.910999, 0, 0,                        !- X,Y,Z Vertex 2 {m}
  49.910999, 0, 2.7432,                   !- X,Y,Z Vertex 3 {m}
  0, 0, 2.7432;                           !- X,Y,Z Vertex 4 {m}

OS:Surface,
  {5685236b-c6d7-48ab-9cae-3ffff0bcafea}, !- Handle
  Surface 5,                              !- Name
  Wall,                                   !- Surface Type
  ,                                       !- Construction Name
  {b943fcf6-ca24-45d1-ad28-d6f8dec794be}, !- Space Name
  Surface,                                !- Outside Boundary Condition
  {30e6f93d-6947-45b7-a83a-42236470dc9e}, !- Outside Boundary Condition Object
  NoSun,                                  !- Sun Exposure
  NoWind,                                 !- Wind Exposure
  ,                                       !- View Factor to Ground
  ,                                       !- Number of Vertices
  49.910999, 0, 0,                        !- X,Y,Z Vertex 1 {m}
  45.337799, 4.5732, 0,                   !- X,Y,Z Vertex 2 {m}
  45.337799, 4.5732, 2.7432,              !- X,Y,Z Vertex 3 {m}
  49.910999, 0, 2.7432;                   !- X,Y,Z Vertex 4 {m}

OS:Surface,
  {d03d9032-93c7-4e6f-b8c8-436f6321f73b}, !- Handle
  Surface 6,                              !- Name
  Wall,                                   !- Surface Type
  ,                                       !- Construction Name
  {b943fcf6-ca24-45d1-ad28-d6f8dec794be}, !- Space Name
  Surface,                                !- Outside Boundary Condition
  {4ccdaa9a-6c14-48b7-81c5-04b5a72623fc}, !- Outside Boundary Condition Object
  NoSun,                                  !- Sun Exposure
  NoWind,                                 !- Wind Exposure
  ,                                       !- View Factor to Ground
  ,                                       !- Number of Vertices
  45.337799, 4.5732, 0,                   !- X,Y,Z Vertex 1 {m}
  4.5732, 4.5732, 0,                      !- X,Y,Z Vertex 2 {m}
  4.5732, 4.5732, 2.7432,                 !- X,Y,Z Vertex 3 {m}
  45.337799, 4.5732, 2.7432;              !- X,Y,Z Vertex 4 {m}

OS:Space,
  {0c131948-f9ab-43c3-8cd2-c6a38239c8fb}, !- Handle
  Space_zone_1,                           !- Name
  ,                                       !- Space Type Name
  ,                                       !- Default Construction Set Name
  ,                                       !- Default Schedule Set Name
  ,                                       !- Direction of Relative North {deg}
  ,                                       !- X Origin {m}
  ,                                       !- Y Origin {m}
  ,                                       !- Z Origin {m}
  {29ea71c9-df9b-4fd3-9c8b-bd92663a9ef5}, !- Building Story Name
  {10f2c032-5528-4b7a-aa67-aa9f8983f506}; !- Thermal Zone Name

OS:Surface,
  {a006d041-c9ed-41e0-af29-f7e405294dd9}, !- Handle
  Surface 7,                              !- Name
  Floor,                                  !- Surface Type
  ,                                       !- Construction Name
  {0c131948-f9ab-43c3-8cd2-c6a38239c8fb}, !- Space Name
  Ground,                                 !- Outside Boundary Condition
  ,                                       !- Outside Boundary Condition Object
  NoSun,                                  !- Sun Exposure
  NoWind,                                 !- Wind Exposure
  ,                                       !- View Factor to Ground
  ,                                       !- Number of Vertices
  45.337799, 4.5372, 0,                   !- X,Y,Z Vertex 1 {m}
  45.337799, 28.7006, 0,                  !- X,Y,Z Vertex 2 {m}
  49.910999, 33.2738, 0,                  !- X,Y,Z Vertex 3 {m}
  49.910999, 0, 0;                        !- X,Y,Z Vertex 4 {m}

OS:Surface,
  {e0f40664-5936-410d-bf8b-6648de2e3ee8}, !- Handle
  Surface 8,                              !- Name
  RoofCeiling,                            !- Surface Type
  ,                                       !- Construction Name
  {0c131948-f9ab-43c3-8cd2-c6a38239c8fb}, !- Space Name
  Outdoors,                               !- Outside Boundary Condition
  ,                                       !- Outside Boundary Condition Object
  SunExposed,                             !- Sun Exposure
  WindExposed,                            !- Wind Exposure
  ,                                       !- View Factor to Ground
  ,                                       !- Number of Vertices
  45.337799, 4.5372, 2.7432,              !- X,Y,Z Vertex 1 {m}
  49.910999, 0, 2.7432,                   !- X,Y,Z Vertex 2 {m}
  49.910999, 33.2738, 2.7432,             !- X,Y,Z Vertex 3 {m}
  45.337799, 28.7006, 2.7432;             !- X,Y,Z Vertex 4 {m}

OS:Surface,
  {cc68d848-2cb1-499b-9f13-e64e28f324fe}, !- Handle
  Surface 9,                              !- Name
  Wall,                                   !- Surface Type
  ,                                       !- Construction Name
  {0c131948-f9ab-43c3-8cd2-c6a38239c8fb}, !- Space Name
  Surface,                                !- Outside Boundary Condition
  {809bc2c2-f619-4287-a003-99247175fab9}, !- Outside Boundary Condition Object
  NoSun,                                  !- Sun Exposure
  NoWind,                                 !- Wind Exposure
  ,                                       !- View Factor to Ground
  ,                                       !- Number of Vertices
  45.337799, 28.7006, 0,                  !- X,Y,Z Vertex 1 {m}
  45.337799, 4.5732, 0,                   !- X,Y,Z Vertex 2 {m}
  45.337799, 4.5732, 2.7432,              !- X,Y,Z Vertex 3 {m}
  45.337799, 28.7006, 2.7432;             !- X,Y,Z Vertex 4 {m}

OS:Surface,
  {30e6f93d-6947-45b7-a83a-42236470dc9e}, !- Handle
  Surface 10,                             !- Name
  Wall,                                   !- Surface Type
  ,                                       !- Construction Name
  {0c131948-f9ab-43c3-8cd2-c6a38239c8fb}, !- Space Name
  Surface,                                !- Outside Boundary Condition
  {5685236b-c6d7-48ab-9cae-3ffff0bcafea}, !- Outside Boundary Condition Object
  NoSun,                                  !- Sun Exposure
  NoWind,                                 !- Wind Exposure
  ,                                       !- View Factor to Ground
  ,                                       !- Number of Vertices
  45.337799, 4.5732, 0,                   !- X,Y,Z Vertex 1 {m}
  49.910999, 0, 0,                        !- X,Y,Z Vertex 2 {m}
  49.910999, 0, 2.7432,                   !- X,Y,Z Vertex 3 {m}
  45.337799, 4.5732, 2.7432;              !- X,Y,Z Vertex 4 {m}

OS:Surface,
  {af9776d6-4fab-441c-8574-e1cb76541793}, !- Handle
  Surface 11,                             !- Name
  Wall,                                   !- Surface Type
  ,                                       !- Construction Name
  {0c131948-f9ab-43c3-8cd2-c6a38239c8fb}, !- Space Name
  Outdoors,                               !- Outside Boundary Condition
  ,                                       !- Outside Boundary Condition Object
  SunExposed,                             !- Sun Exposure
  WindExposed,                            !- Wind Exposure
  ,                                       !- View Factor to Ground
  ,                                       !- Number of Vertices
  49.910999, 0, 0,                        !- X,Y,Z Vertex 1 {m}
  49.910999, 33.2738, 0,                  !- X,Y,Z Vertex 2 {m}
  49.910999, 33.2738, 2.7432,             !- X,Y,Z Vertex 3 {m}
  49.910999, 0, 2.7432;                   !- X,Y,Z Vertex 4 {m}

OS:Surface,
  {98d2f1bd-23eb-4f2f-8979-ff8a25843f2a}, !- Handle
  Surface 12,                             !- Name
  Wall,                                   !- Surface Type
  ,                                       !- Construction Name
  {0c131948-f9ab-43c3-8cd2-c6a38239c8fb}, !- Space Name
  Surface,                                !- Outside Boundary Condition
  {989ea9bd-c6f8-43ca-84bd-a853dc5ac95a}, !- Outside Boundary Condition Object
  NoSun,                                  !- Sun Exposure
  NoWind,                                 !- Wind Exposure
  ,                                       !- View Factor to Ground
  ,                                       !- Number of Vertices
  49.910999, 33.2738, 0,                  !- X,Y,Z Vertex 1 {m}
  45.337799, 28.7006, 0,                  !- X,Y,Z Vertex 2 {m}
  45.337799, 28.7006, 2.7432,             !- X,Y,Z Vertex 3 {m}
  49.910999, 33.2738, 2.7432;             !- X,Y,Z Vertex 4 {m}

OS:Space,
  {80331630-e2bf-4dc0-be8b-64c8a91980cd}, !- Handle
  Space_zone_2,                           !- Name
  ,                                       !- Space Type Name
  ,                                       !- Default Construction Set Name
  ,                                       !- Default Schedule Set Name
  ,                                       !- Direction of Relative North {deg}
  ,                                       !- X Origin {m}
  ,                                       !- Y Origin {m}
  ,                                       !- Z Origin {m}
  {29ea71c9-df9b-4fd3-9c8b-bd92663a9ef5}, !- Building Story Name
  {9346b363-2b2d-451e-8098-fb2683c93774}; !- Thermal Zone Name

OS:Surface,
  {d65c4a9c-8b7e-4c5e-921c-32dc6343df80}, !- Handle
  Surface 13,                             !- Name
  Floor,                                  !- Surface Type
  ,                                       !- Construction Name
  {80331630-e2bf-4dc0-be8b-64c8a91980cd}, !- Space Name
  Ground,                                 !- Outside Boundary Condition
  ,                                       !- Outside Boundary Condition Object
  NoSun,                                  !- Sun Exposure
  NoWind,                                 !- Wind Exposure
  ,                                       !- View Factor to Ground
  ,                                       !- Number of Vertices
  4.5732, 28.7006, 0,                     !- X,Y,Z Vertex 1 {m}
  0, 33.2738, 0,                          !- X,Y,Z Vertex 2 {m}
  49.910999, 33.2738, 0,                  !- X,Y,Z Vertex 3 {m}
  45.337799, 28.7006, 0;                  !- X,Y,Z Vertex 4 {m}

OS:Surface,
  {3eadee43-0540-401b-baa3-9517837ec9bc}, !- Handle
  Surface 14,                             !- Name
  RoofCeiling,                            !- Surface Type
  ,                                       !- Construction Name
  {80331630-e2bf-4dc0-be8b-64c8a91980cd}, !- Space Name
  Outdoors,                               !- Outside Boundary Condition
  ,                                       !- Outside Boundary Condition Object
  SunExposed,                             !- Sun Exposure
  WindExposed,                            !- Wind Exposure
  ,                                       !- View Factor to Ground
  ,                                       !- Number of Vertices
  4.5732, 28.7006, 2.7432,                !- X,Y,Z Vertex 1 {m}
  45.337799, 28.7006, 2.7432,             !- X,Y,Z Vertex 2 {m}
  49.910999, 33.2738, 2.7432,             !- X,Y,Z Vertex 3 {m}
  0, 33.2738, 2.7432;                     !- X,Y,Z Vertex 4 {m}

OS:Surface,
  {0f3073d6-b48a-4eba-8c41-57eedb604089}, !- Handle
  Surface 15,                             !- Name
  Wall,                                   !- Surface Type
  ,                                       !- Construction Name
  {80331630-e2bf-4dc0-be8b-64c8a91980cd}, !- Space Name
  Outdoors,                               !- Outside Boundary Condition
  ,                                       !- Outside Boundary Condition Object
  SunExposed,                             !- Sun Exposure
  WindExposed,                            !- Wind Exposure
  ,                                       !- View Factor to Ground
  ,                                       !- Number of Vertices
  0, 33.2738, 0,                          !- X,Y,Z Vertex 1 {m}
  4.7352, 28.7006, 0,                     !- X,Y,Z Vertex 2 {m}
  4.7352, 28.7006, 2.7432,                !- X,Y,Z Vertex 3 {m}
  0, 33.2738, 2.7432;                     !- X,Y,Z Vertex 4 {m}

OS:Surface,
  {ef6d1322-3637-477e-b8d8-5a4579e69687}, !- Handle
  Surface 16,                             !- Name
  Wall,                                   !- Surface Type
  ,                                       !- Construction Name
  {80331630-e2bf-4dc0-be8b-64c8a91980cd}, !- Space Name
  Surface,                                !- Outside Boundary Condition
  {1450adfc-e4e4-426f-9494-7d1e64ef06a4}, !- Outside Boundary Condition Object
  NoSun,                                  !- Sun Exposure
  NoWind,                                 !- Wind Exposure
  ,                                       !- View Factor to Ground
  ,                                       !- Number of Vertices
  4.5732, 28.7006, 0,                     !- X,Y,Z Vertex 1 {m}
  45.337799, 28.7006, 0,                  !- X,Y,Z Vertex 2 {m}
  45.337799, 28.7006, 2.7432,             !- X,Y,Z Vertex 3 {m}
  4.5732, 28.7006, 2.7432;                !- X,Y,Z Vertex 4 {m}

OS:Surface,
  {989ea9bd-c6f8-43ca-84bd-a853dc5ac95a}, !- Handle
  Surface 17,                             !- Name
  Wall,                                   !- Surface Type
  ,                                       !- Construction Name
  {80331630-e2bf-4dc0-be8b-64c8a91980cd}, !- Space Name
  Surface,                                !- Outside Boundary Condition
  {98d2f1bd-23eb-4f2f-8979-ff8a25843f2a}, !- Outside Boundary Condition Object
  NoSun,                                  !- Sun Exposure
  NoWind,                                 !- Wind Exposure
  ,                                       !- View Factor to Ground
  ,                                       !- Number of Vertices
  45.337799, 28.7006, 0,                  !- X,Y,Z Vertex 1 {m}
  49.910999, 33.2738, 0,                  !- X,Y,Z Vertex 2 {m}
  49.910999, 33.2738, 2.7432,             !- X,Y,Z Vertex 3 {m}
  45.337799, 28.7006, 2.7432;             !- X,Y,Z Vertex 4 {m}

OS:Surface,
  {7c51addb-4f3a-4647-a4dc-9c1b6519590b}, !- Handle
  Surface 18,                             !- Name
  Wall,                                   !- Surface Type
  ,                                       !- Construction Name
  {80331630-e2bf-4dc0-be8b-64c8a91980cd}, !- Space Name
  Outdoors,                               !- Outside Boundary Condition
  ,                                       !- Outside Boundary Condition Object
  SunExposed,                             !- Sun Exposure
  WindExposed,                            !- Wind Exposure
  ,                                       !- View Factor to Ground
  ,                                       !- Number of Vertices
  49.910999, 33.2738, 0,                  !- X,Y,Z Vertex 1 {m}
  0, 33.2738, 0,                          !- X,Y,Z Vertex 2 {m}
  0, 33.2738, 2.7432,                     !- X,Y,Z Vertex 3 {m}
  49.910999, 33.2738, 2.7432;             !- X,Y,Z Vertex 4 {m}

OS:Space,
  {3ee70a06-19c4-417d-aff1-455f0a50fdc4}, !- Handle
  Space_zone_3,                           !- Name
  ,                                       !- Space Type Name
  ,                                       !- Default Construction Set Name
  ,                                       !- Default Schedule Set Name
  ,                                       !- Direction of Relative North {deg}
  ,                                       !- X Origin {m}
  ,                                       !- Y Origin {m}
  ,                                       !- Z Origin {m}
  {29ea71c9-df9b-4fd3-9c8b-bd92663a9ef5}, !- Building Story Name
  {c0e53dd2-4ec4-45e1-956e-36134f02e764}; !- Thermal Zone Name

OS:Surface,
  {fac9bdde-e5ec-4655-8fa8-d5912e53490b}, !- Handle
  Surface 19,                             !- Name
  Floor,                                  !- Surface Type
  ,                                       !- Construction Name
  {3ee70a06-19c4-417d-aff1-455f0a50fdc4}, !- Space Name
  Ground,                                 !- Outside Boundary Condition
  ,                                       !- Outside Boundary Condition Object
  NoSun,                                  !- Sun Exposure
  NoWind,                                 !- Wind Exposure
  ,                                       !- View Factor to Ground
  ,                                       !- Number of Vertices
  0, 0, 0,                                !- X,Y,Z Vertex 1 {m}
  0, 33.2738, 0,                          !- X,Y,Z Vertex 2 {m}
  4.5732, 28.7006, 0,                     !- X,Y,Z Vertex 3 {m}
  4.5732, 4.5732, 0;                      !- X,Y,Z Vertex 4 {m}

OS:Surface,
  {a49d24a9-e7cc-4a00-9a71-733a13fd7ae3}, !- Handle
  Surface 20,                             !- Name
  RoofCeiling,                            !- Surface Type
  ,                                       !- Construction Name
  {3ee70a06-19c4-417d-aff1-455f0a50fdc4}, !- Space Name
  Outdoors,                               !- Outside Boundary Condition
  ,                                       !- Outside Boundary Condition Object
  SunExposed,                             !- Sun Exposure
  WindExposed,                            !- Wind Exposure
  ,                                       !- View Factor to Ground
  ,                                       !- Number of Vertices
  0, 0, 2.7432,                           !- X,Y,Z Vertex 1 {m}
  4.5732, 4.5732, 2.7432,                 !- X,Y,Z Vertex 2 {m}
  4.5732, 28.7006, 2.7432,                !- X,Y,Z Vertex 3 {m}
  0, 33.2738, 2.7432;                     !- X,Y,Z Vertex 4 {m}

OS:Surface,
  {b6d0375c-c878-40ca-be52-6dc2e23b51a9}, !- Handle
  Surface 21,                             !- Name
  Wall,                                   !- Surface Type
  ,                                       !- Construction Name
  {3ee70a06-19c4-417d-aff1-455f0a50fdc4}, !- Space Name
  Outdoors,                               !- Outside Boundary Condition
  ,                                       !- Outside Boundary Condition Object
  SunExposed,                             !- Sun Exposure
  WindExposed,                            !- Wind Exposure
  ,                                       !- View Factor to Ground
  ,                                       !- Number of Vertices
  0, 33.2738, 0,                          !- X,Y,Z Vertex 1 {m}
  0, 0, 0,                                !- X,Y,Z Vertex 2 {m}
  0, 0, 2.7432,                           !- X,Y,Z Vertex 3 {m}
  0, 33.2738, 2.7432;                     !- X,Y,Z Vertex 4 {m}

OS:Surface,
  {26211a86-3636-4fdf-b5d7-0fc6cf5c95b9}, !- Handle
  Surface 22,                             !- Name
  Wall,                                   !- Surface Type
  ,                                       !- Construction Name
  {3ee70a06-19c4-417d-aff1-455f0a50fdc4}, !- Space Name
  Surface,                                !- Outside Boundary Condition
  {6f36a3d1-c174-4869-ad61-12d8384c56ff}, !- Outside Boundary Condition Object
  NoSun,                                  !- Sun Exposure
  NoWind,                                 !- Wind Exposure
  ,                                       !- View Factor to Ground
  ,                                       !- Number of Vertices
  0, 0, 0,                                !- X,Y,Z Vertex 1 {m}
  4.5732, 4.5732, 0,                      !- X,Y,Z Vertex 2 {m}
  4.5732, 4.5732, 2.7432,                 !- X,Y,Z Vertex 3 {m}
  0, 0, 2.7432;                           !- X,Y,Z Vertex 4 {m}

OS:Surface,
  {90c52c3e-4d90-4d66-a017-acb1e7d68b59}, !- Handle
  Surface 23,                             !- Name
  Wall,                                   !- Surface Type
  ,                                       !- Construction Name
  {3ee70a06-19c4-417d-aff1-455f0a50fdc4}, !- Space Name
  Surface,                                !- Outside Boundary Condition
  {4f32889d-5f64-4921-90ad-6382bc9098f6}, !- Outside Boundary Condition Object
  NoSun,                                  !- Sun Exposure
  NoWind,                                 !- Wind Exposure
  ,                                       !- View Factor to Ground
  ,                                       !- Number of Vertices
  4.5732, 4.5732, 0,                      !- X,Y,Z Vertex 1 {m}
  4.5732, 28.7006, 0,                     !- X,Y,Z Vertex 2 {m}
  4.5732, 28.7006, 2.7432,                !- X,Y,Z Vertex 3 {m}
  4.5732, 4.5732, 2.7432;                 !- X,Y,Z Vertex 4 {m}

OS:Surface,
  {06fa3770-c6ad-4843-988a-05a4c38f7eae}, !- Handle
  Surface 24,                             !- Name
  Wall,                                   !- Surface Type
  ,                                       !- Construction Name
  {3ee70a06-19c4-417d-aff1-455f0a50fdc4}, !- Space Name
  Outdoors,                               !- Outside Boundary Condition
  ,                                       !- Outside Boundary Condition Object
  SunExposed,                             !- Sun Exposure
  WindExposed,                            !- Wind Exposure
  ,                                       !- View Factor to Ground
  ,                                       !- Number of Vertices
  4.5732, 28.7006, 0,                     !- X,Y,Z Vertex 1 {m}
  0, 33.2738, 0,                          !- X,Y,Z Vertex 2 {m}
  0, 33.2738, 2.7432,                     !- X,Y,Z Vertex 3 {m}
  4.5732, 28.7006, 2.7432;                !- X,Y,Z Vertex 4 {m}

OS:Space,
  {7c9f6910-51c9-43ff-80df-cf462a013a17}, !- Handle
  Space_zone_4,                           !- Name
  ,                                       !- Space Type Name
  ,                                       !- Default Construction Set Name
  ,                                       !- Default Schedule Set Name