
OS:Version,
  {2420b936-a7f6-4e68-87d4-3cb4a5d3eec7}, !- Handle
  1.9.0;                                  !- Version Identifier

OS:Facility,
  {97691c2f-86ad-4c75-a83d-f96af0daeb0d}; !- Handle

OS:Building,
  {5df45402-9c17-4b73-b092-06344e9925da}, !- Handle
  Building 1,                             !- Name
  ,                                       !- Building Sector Type
  ,                                       !- North Axis {deg}
  ,                                       !- Nominal Floor to Floor Height {m}
  ,                                       !- Space Type Name
  ,                                       !- Default Construction Set Name
  ;                                       !- Default Schedule Set Name

OS:BuildingStory,
  {a70428c7-a092-4f45-826a-26b5b6914222}, !- Handle
  Level 1,                                !- Name
  ,                                       !- Nominal Z Coordinate {m}
  ,                                       !- Nominal Floor to Floor Height {m}
  ,                                       !- Default Construction Set Name
  ,                                       !- Default Schedule Set Name
  ;                                       !- Group Rendering Name

OS:BuildingStory,
  {c73cf49d-568e-49b6-854e-8bb059ee1ff3}, !- Handle
  Level 2,                                !- Name
  ,                                       !- Nominal Z Coordinate {m}
  7,                                      !- Nominal Floor to Floor Height {m}
  ,                                       !- Default Construction Set Name
  ,                                       !- Default Schedule Set Name
  ;                                       !- Group Rendering Name

OS:BuildingStory,
  {0d6e7ee2-c852-4aa9-a2ae-238a3c9bb22e}, !- Handle
  Level 3,                                !- Name
  ,                                       !- Nominal Z Coordinate {m}
  14,                                     !- Nominal Floor to Floor Height {m}
  ,                                       !- Default Construction Set Name
  ,                                       !- Default Schedule Set Name
  ;                                       !- Group Rendering Name

OS:Space,
  {59a88ae2-ed6d-4749-a71e-a1e829e4cecf}, !- Handle
  Space_0_0,                              !- Name
  ,                                       !- Space Type Name
  ,                                       !- Default Construction Set Name
  ,                                       !- Default Schedule Set Name
  ,                                       !- Direction of Relative North {deg}
  ,                                       !- X Origin {m}
  ,                                       !- Y Origin {m}
  ,                                       !- Z Origin {m}
  {a70428c7-a092-4f45-826a-26b5b6914222}, !- Building Story Name
  {f47fd05e-bfd0-4c68-8118-d960345d60a6}; !- Thermal Zone Name

OS:Surface,
  {92f0736d-73f6-427f-b268-b27cc9a32630}, !- Handle
  Surface 1,                              !- Name
  Floor,                                  !- Surface Type
  ,                                       !- Construction Name
  {59a88ae2-ed6d-4749-a71e-a1e829e4cecf}, !- Space Name
  Ground,                                 !- Outside Boundary Condition
  ,                                       !- Outside Boundary Condition Object
  NoSun,                                  !- Sun Exposure
  NoWind,                                 !- Wind Exposure
  ,                                       !- View Factor to Ground
  ,                                       !- Number of Vertices
  -10, -14, 0,                            !- X,Y,Z Vertex 1 {m}
  -10, 14, 0,                             !- X,Y,Z Vertex 2 {m}
  10, 14, 0,                              !- X,Y,Z Vertex 3 {m}
  10, -14, 0;                             !- X,Y,Z Vertex 4 {m}

OS:Surface,
  {caa25727-cddf-4e1b-8a77-e40db4ce4eb2}, !- Handle
  Surface 2,                              !- Name
  Wall,                                   !- Surface Type
  ,                                       !- Construction Name
  {59a88ae2-ed6d-4749-a71e-a1e829e4cecf}, !- Space Name
  Outdoors,                               !- Outside Boundary Condition
  ,                                       !- Outside Boundary Condition Object
  SunExposed,                             !- Sun Exposure
  WindExposed,                            !- Wind Exposure
  ,                                       !- View Factor to Ground
  ,                                       !- Number of Vertices
  -10, -14, 0,                            !- X,Y,Z Vertex 1 {m}
  -10, -14, 7,                            !- X,Y,Z Vertex 2 {m}
  -10, 14, 7,                             !- X,Y,Z Vertex 3 {m}
  -10, 14, 0;                             !- X,Y,Z Vertex 4 {m}

OS:Surface,
  {3e515502-0a0c-44f2-9c98-999b18af955b}, !- Handle
  Surface 3,                              !- Name
  Wall,                                   !- Surface Type
  ,                                       !- Construction Name
  {59a88ae2-ed6d-4749-a71e-a1e829e4cecf}, !- Space Name
  Outdoors,                               !- Outside Boundary Condition
  ,                                       !- Outside Boundary Condition Object
  SunExposed,                             !- Sun Exposure
  WindExposed,                            !- Wind Exposure
  ,                                       !- View Factor to Ground
  ,                                       !- Number of Vertices
  -10, -14, 0,                            !- X,Y,Z Vertex 1 {m}
  10, -14, 0,                             !- X,Y,Z Vertex 2 {m}
  10, -14, 7,                             !- X,Y,Z Vertex 3 {m}
  -10, -14, 7;                            !- X,Y,Z Vertex 4 {m}

OS:Surface,
  {859d5d0f-b841-437a-b5ed-9a26382a24bb}, !- Handle
  Surface 4,                              !- Name
  Wall,                                   !- Surface Type
  ,                                       !- Construction Name
  {59a88ae2-ed6d-4749-a71e-a1e829e4cecf}, !- Space Name
  Surface,                                !- Outside Boundary Condition
  {c5c2d76f-c351-4379-8eca-8ce05a2d5dec}, !- Outside Boundary Condition Object
  NoSun,                                  !- Sun Exposure
  NoWind,                                 !- Wind Exposure
  ,                                       !- View Factor to Ground
  ,                                       !- Number of Vertices
  10, -5, 7,                              !- X,Y,Z Vertex 1 {m}
  10, -5, 0,                              !- X,Y,Z Vertex 2 {m}
  10, 5, 0,                               !- X,Y,Z Vertex 3 {m}
  10, 5, 7;                               !- X,Y,Z Vertex 4 {m}

OS:Surface,
  {924dda0d-695f-4bad-859b-30df22be8273}, !- Handle
  Surface 5,                              !- Name
  Wall,                                   !- Surface Type
  ,                                       !- Construction Name
  {59a88ae2-ed6d-4749-a71e-a1e829e4cecf}, !- Space Name
  Outdoors,                               !- Outside Boundary Condition
  ,                                       !- Outside Boundary Condition Object
  SunExposed,                             !- Sun Exposure
  WindExposed,                            !- Wind Exposure
  ,                                       !- View Factor to Ground
  ,                                       !- Number of Vertices
  10, 14, 0,                              !- X,Y,Z Vertex 1 {m}
  -10, 14, 0,                             !- X,Y,Z Vertex 2 {m}
  -10, 14, 7,                             !- X,Y,Z Vertex 3 {m}
  10, 14, 7;                              !- X,Y,Z Vertex 4 {m}

OS:Surface,
  {4070b6f7-1858-403f-91ff-37c2496abd00}, !- Handle
  Surface 6,                              !- Name
  RoofCeiling,                            !- Surface Type
  ,                                       !- Construction Name
  {59a88ae2-ed6d-4749-a71e-a1e829e4cecf}, !- Space Name
  Surface,                                !- Outside Boundary Condition
  {b5b17106-9c0e-4854-973a-f8e2c62e7556}, !- Outside Boundary Condition Object
  NoSun,                                  !- Sun Exposure
  NoWind,                                 !- Wind Exposure
  ,                                       !- View Factor to Ground
  ,                                       !- Number of Vertices
  10, -10, 7,                             !- X,Y,Z Vertex 1 {m}
  10, 10, 7,                              !- X,Y,Z Vertex 2 {m}
  -10, 10, 7,                             !- X,Y,Z Vertex 3 {m}
  -10, -10, 7;                            !- X,Y,Z Vertex 4 {m}

OS:Space,
  {83df5833-3b85-4c3b-8e0e-1b052e1aadbd}, !- Handle
  Space_2_0,                              !- Name
  ,                                       !- Space Type Name
  ,                                       !- Default Construction Set Name
  ,                                       !- Default Schedule Set Name
  ,                                       !- Direction of Relative North {deg}
  ,                                       !- X Origin {m}
  ,                                       !- Y Origin {m}
  ,                                       !- Z Origin {m}
  {a70428c7-a092-4f45-826a-26b5b6914222}, !- Building Story Name
  {9277f46c-fbeb-44e1-99ad-a852674bf12d}; !- Thermal Zone Name

OS:Surface,
  {d4ab40f8-56a3-411f-8afc-a9dbd4926b13}, !- Handle
  Surface 7,                              !- Name
  Floor,                                  !- Surface Type
  ,                                       !- Construction Name
  {83df5833-3b85-4c3b-8e0e-1b052e1aadbd}, !- Space Name
  Ground,                                 !- Outside Boundary Condition
  ,                                       !- Outside Boundary Condition Object
  NoSun,                                  !- Sun Exposure
  NoWind,                                 !- Wind Exposure
  ,                                       !- View Factor to Ground
  ,                                       !- Number of Vertices
  10, 5, 0,                               !- X,Y,Z Vertex 1 {m}
  10, 15, 0,                              !- X,Y,Z Vertex 2 {m}
  30, 15, 0,                              !- X,Y,Z Vertex 3 {m}
  30, 5, 0;                               !- X,Y,Z Vertex 4 {m}

OS:Surface,
  {f3d8c8f9-5f57-4df6-ac5e-4ed005bae530}, !- Handle
  Surface 8,                              !- Name
  Wall,                                   !- Surface Type
  ,                                       !- Construction Name
  {83df5833-3b85-4c3b-8e0e-1b052e1aadbd}, !- Space Name
  Surface,                                !- Outside Boundary Condition
  {6461b2ed-42a1-43fe-bd4b-23945742019b}, !- Outside Boundary Condition Object
  NoSun,                                  !- Sun Exposure
  NoWind,                                 !- Wind Exposure
  ,                                       !- View Factor to Ground
  ,                                       !- Number of Vertices
  10, 14, 7,                              !- X,Y,Z Vertex 1 {m}
  10, 14, 0,                              !- X,Y,Z Vertex 2 {m}
  10, 5, 0,                               !- X,Y,Z Vertex 3 {m}
  10, 5, 7;                               !- X,Y,Z Vertex 4 {m}

OS:Surface,
  {93fc7085-11f0-40bf-b3f3-619e00d3d764}, !- Handle
  Surface 9,                              !- Name
  Wall,                                   !- Surface Type
  ,                                       !- Construction Name
  {83df5833-3b85-4c3b-8e0e-1b052e1aadbd}, !- Space Name
  Surface,                                !- Outside Boundary Condition
  {1b13bb24-84a0-4cbb-bf41-a5d53e4d0edc}, !- Outside Boundary Condition Object
  NoSun,                                  !- Sun Exposure
  NoWind,                                 !- Wind Exposure
  ,                                       !- View Factor to Ground
  ,                                       !- Number of Vertices
  10, 5, 0,                               !- X,Y,Z Vertex 1 {m}
  30, 5, 0,                               !- X,Y,Z Vertex 2 {m}
  30, 5, 7,                               !- X,Y,Z Vertex 3 {m}
  10, 5, 7;                               !- X,Y,Z Vertex 4 {m}

OS:Surface,
  {e2e7a6ab-5573-4361-aefa-c932e45a3b2e}, !- Handle
  Surface 10,                             !- Name
  Wall,                                   !- Surface Type
  ,                                       !- Construction Name
  {83df5833-3b85-4c3b-8e0e-1b052e1aadbd}, !- Space Name
  Outdoors,                               !- Outside Boundary Condition
  ,                                       !- Outside Boundary Condition Object
  SunExposed,                             !- Sun Exposure
  WindExposed,                            !- Wind Exposure
  ,                                       !- View Factor to Ground
  ,                                       !- Number of Vertices
  30, 5, 0,                               !- X,Y,Z Vertex 1 {m}
  30, 15, 0,                              !- X,Y,Z Vertex 2 {m}
  30, 15, 7,                              !- X,Y,Z Vertex 3 {m}
  30, 5, 7;                               !- X,Y,Z Vertex 4 {m}

OS:Surface,
  {6212af3f-25f8-47d2-a44e-e0d666247885}, !- Handle
  Surface 11,                             !- Name
  Wall,                                   !- Surface Type
  ,                                       !- Construction Name
  {83df5833-3b85-4c3b-8e0e-1b052e1aadbd}, !- Space Name
  Outdoors,                               !- Outside Boundary Condition
  ,                                       !- Outside Boundary Condition Object
  SunExposed,                             !- Sun Exposure
  WindExposed,                            !- Wind Exposure
  ,                                       !- View Factor to Ground
  ,                                       !- Number of Vertices
  30, 15, 0,                              !- X,Y,Z Vertex 1 {m}
  10, 15, 0,                              !- X,Y,Z Vertex 2 {m}
  10, 15, 7,                              !- X,Y,Z Vertex 3 {m}
  30, 15, 7;                              !- X,Y,Z Vertex 4 {m}

OS:Surface,
  {378636f3-4401-4f96-82c7-5cf99f13daa4}, !- Handle
  Surface 12,                             !- Name
  RoofCeiling,                            !- Surface Type
  ,                                       !- Construction Name
  {83df5833-3b85-4c3b-8e0e-1b052e1aadbd}, !- Space Name
  Outdoors,                               !- Outside Boundary Condition
  ,                                       !- Outside Boundary Condition Object
  SunExposed,                             !- Sun Exposure
  WindExposed,                            !- Wind Exposure
  ,                                       !- View Factor to Ground
  ,                                       !- Number of Vertices
  10, 5, 7,                               !- X,Y,Z Vertex 1 {m}
  30, 5, 7,                               !- X,Y,Z Vertex 2 {m}
  30, 15, 7,                              !- X,Y,Z Vertex 3 {m}
  10, 15, 7;                              !- X,Y,Z Vertex 4 {m}

OS:Space,
  {192286eb-d3c1-454d-b60b-745139ae654d}, !- Handle
  Space_1_0,                              !- Name
  ,                                       !- Space Type Name
  ,                                       !- Default Construction Set Name
  ,                                       !- Default Schedule Set Name
  ,                                       !- Direction of Relative North {deg}
  ,                                       !- X Origin {m}
  ,                                       !- Y Origin {m}
  ,                                       !- Z Origin {m}
  {a70428c7-a092-4f45-826a-26b5b6914222}, !- Building Story Name
  {fcacc9af-9b82-4462-98a4-50c1b67bcf66}; !- Thermal Zone Name

OS:Surface,
  {cdbc034d-f8ac-4363-9125-0b6fb4d271e6}, !- Handle
  Surface 13,                             !- Name
  Floor,                                  !- Surface Type
  ,                                       !- Construction Name
  {192286eb-d3c1-454d-b60b-745139ae654d}, !- Space Name
  Ground,                                 !- Outside Boundary Condition
  ,                                       !- Outside Boundary Condition Object
  NoSun,                                  !- Sun Exposure
  NoWind,                                 !- Wind Exposure
  ,                                       !- View Factor to Ground
  ,                                       !- Number of Vertices
  10, -5, 0,                              !- X,Y,Z Vertex 1 {m}
  10, 5, 0,                               !- X,Y,Z Vertex 2 {m}
  30, 5, 0,                               !- X,Y,Z Vertex 3 {m}
  30, -5, 0;                              !- X,Y,Z Vertex 4 {m}

OS:Surface,
  {c5c2d76f-c351-4379-8eca-8ce05a2d5dec}, !- Handle
  Surface 14,                             !- Name
  Wall,                                   !- Surface Type
  ,                                       !- Construction Name
  {192286eb-d3c1-454d-b60b-745139ae654d}, !- Space Name
  Surface,                                !- Outside Boundary Condition
  {859d5d0f-b841-437a-b5ed-9a26382a24bb}, !- Outside Boundary Condition Object
  NoSun,                                  !- Sun Exposure
  NoWind,                                 !- Wind Exposure
  ,                                       !- View Factor to Ground
  ,                                       !- Number of Vertices
  10, 5, 7,                               !- X,Y,Z Vertex 1 {m}
  10, 5, 0,                               !- X,Y,Z Vertex 2 {m}
  10, -5, 0,                              !- X,Y,Z Vertex 3 {m}
  10, -5, 7;                              !- X,Y,Z Vertex 4 {m}

OS:Surface,
  {d6f3dcce-ad34-4f10-8f3e-054226034dee}, !- Handle
  Surface 15,                             !- Name
  Wall,                                   !- Surface Type
  ,                                       !- Construction Name
  {192286eb-d3c1-454d-b60b-745139ae654d}, !- Space Name
  Surface,                                !- Outside Boundary Condition
  {91bc4d72-3b57-40cf-b190-9a853e1d2b4b}, !- Outside Boundary Condition Object
  NoSun,                                  !- Sun Exposure
  NoWind,                                 !- Wind Exposure
  ,                                       !- View Factor to Ground
  ,                                       !- Number of Vertices
  10, -5, 0,                              !- X,Y,Z Vertex 1 {m}
  30, -5, 0,                              !- X,Y,Z Vertex 2 {m}
  30, -5, 7,                              !- X,Y,Z Vertex 3 {m}
  10, -5, 7;                              !- X,Y,Z Vertex 4 {m}

OS:Surface,
  {16554d70-dbbe-45dc-8bfd-834a68cb0df7}, !- Handle
  Surface 16,                             !- Name
  Wall,                                   !- Surface Type
  ,                                       !- Construction Name
  {192286eb-d3c1-454d-b60b-745139ae654d}, !- Space Name
  Outdoors,                               !- Outside Boundary Condition
  ,                                       !- Outside Boundary Condition Object
  SunExposed,                             !- Sun Exposure
  WindExposed,                            !- Wind Exposure
  ,                                       !- View Factor to Ground
  ,                                       !- Number of Vertices
  30, -5, 0,                              !- X,Y,Z Vertex 1 {m}
  30, 5, 0,                               !- X,Y,Z Vertex 2 {m}
  30, 5, 7,                               !- X,Y,Z Vertex 3 {m}
  30, -5, 7;                              !- X,Y,Z Vertex 4 {m}

OS:Surface,
  {1b13bb24-84a0-4cbb-bf41-a5d53e4d0edc}, !- Handle
  Surface 17,                             !- Name
  Wall,                                   !- Surface Type
  ,                                       !- Construction Name
  {192286eb-d3c1-454d-b60b-745139ae654d}, !- Space Name
  Surface,                                !- Outside Boundary Condition
  {93fc7085-11f0-40bf-b3f3-619e00d3d764}, !- Outside Boundary Condition Object
  NoSun,                                  !- Sun Exposure
  NoWind,                                 !- Wind Exposure
  ,                                       !- View Factor to Ground
  ,                                       !- Number of Vertices
  30, 5, 0,                               !- X,Y,Z Vertex 1 {m}
  10, 5, 0,                               !- X,Y,Z Vertex 2 {m}
  10, 5, 7,                               !- X,Y,Z Vertex 3 {m}
  30, 5, 7;                               !- X,Y,Z Vertex 4 {m}

OS:Surface,
  {fdc185c0-2e65-4649-bf62-c65f5b2ea8af}, !- Handle
  Surface 18,                             !- Name
  RoofCeiling,                            !- Surface Type
  ,                                       !- Construction Name
  {192286eb-d3c1-454d-b60b-745139ae654d}, !- Space Name
  Outdoors,                               !- Outside Boundary Condition
  ,                                       !- Outside Boundary Condition Object
  SunExposed,                             !- Sun Exposure
  WindExposed,                            !- Wind Exposure
  ,                                       !- View Factor to Ground
  ,                                       !- Number of Vertices
  10, -5, 7,                              !- X,Y,Z Vertex 1 {m}
  30, -5, 7,                              !- X,Y,Z Vertex 2 {m}
  30, 5, 7,                               !- X,Y,Z Vertex 3 {m}
  10, 5, 7;                               !- X,Y,Z Vertex 4 {m}

OS:Space,
  {96f7d247-10e4-415c-9408-8ffb9a15dd35}, !- Handle
  Space_3_0,                              !- Name
  ,                                       !- Space Type Name
  ,                                       !- Default Construction Set Name
  ,                                       !- Default Schedule Set Name
  ,                                       !- Direction of Relative North {deg}
  ,                                       !- X Origin {m}
  ,                                       !- Y Origin {m}
  ,                                       !- Z Origin {m}
  {a70428c7-a092-4f45-826a-26b5b6914222}, !- Building Story Name
  {d9ce399f-4bb4-45de-afff-3f3a2832dacf}; !- Thermal Zone Name

OS:Surface,
  {0bfaf31b-ac2f-492a-a5d9-ef1ee930c9b5}, !- Handle
  Surface 19,                             !- Name
  Floor,                                  !- Surface Type
  ,                                       !- Construction Name
  {96f7d247-10e4-415c-9408-8ffb9a15dd35}, !- Space Name
  Ground,                                 !- Outside Boundary Condition
  ,                                       !- Outside Boundary Condition Object
  NoSun,                                  !- Sun Exposure
  NoWind,                                 !- Wind Exposure
  ,                                       !- View Factor to Ground
  ,                                       !- Number of Vertices
  10, -15, 0,                             !- X,Y,Z Vertex 1 {m}
  10, -5, 0,                              !- X,Y,Z Vertex 2 {m}
  30, -5, 0,                              !- X,Y,Z Vertex 3 {m}
  30, -15, 0;                             !- X,Y,Z Vertex 4 {m}

OS:Surface,
  {ef713e70-5f31-4d40-9e55-bdaa778c53da}, !- Handle
  Surface 20,                             !- Name
  Wall,                                   !- Surface Type
  ,                                       !- Construction Name
  {96f7d247-10e4-415c-9408-8ffb9a15dd35}, !- Space Name
  Surface,                                !- Outside Boundary Condition
  {3ab5ca44-68cb-42e2-8b7c-24d144ae087f}, !- Outside Boundary Condition Object
  NoSun,                                  !- Sun Exposure
  NoWind,                                 !- Wind Exposure
  ,                                       !- View Factor to Ground
  ,                                       !- Number of Vertices
  10, -5, 7,                              !- X,Y,Z Vertex 1 {m}
  10, -5, 0,                              !- X,Y,Z Vertex 2 {m}
  10, -14, 0,                             !- X,Y,Z Vertex 3 {m}
  10, -14, 7;                             !- X,Y,Z Vertex 4 {m}

OS:Surface,
  {15dd838f-984b-4005-8d8d-6bcbc4a81c7d}, !- Handle
  Surface 21,                             !- Name
  Wall,                                   !- Surface Type
  ,                                       !- Construction Name
  {96f7d247-10e4-415c-9408-8ffb9a15dd35}, !- Space Name
  Outdoors,                               !- Outside Boundary Condition
  ,                                       !- Outside Boundary Condition Object
  SunExposed,                             !- Sun Exposure
  WindExposed,                            !- Wind Exposure
  ,                                       !- View Factor to Ground
  ,                                       !- Number of Vertices
  10, -15, 0,                             !- X,Y,Z Vertex 1 {m}
  30, -15, 0,                             !- X,Y,Z Vertex 2 {m}
  30, -15, 7,                             !- X,Y,Z Vertex 3 {m}
  10, -15, 7;                             !- X,Y,Z Vertex 4 {m}

OS:Surface,
  {f1ddd97e-1f30-49b2-9cbe-d666c56737de}, !- Handle
  Surface 22,                             !- Name
  Wall,                                   !- Surface Type
  ,                                       !- Construction Name
  {96f7d247-10e4-415c-9408-8ffb9a15dd35}, !- Space Name
  Outdoors,                               !- Outside Boundary Condition
  ,                                       !- Outside Boundary Condition Object
  SunExposed,                             !- Sun Exposure
  WindExposed,                            !- Wind Exposure
  ,                                       !- View Factor to Ground
  ,                                       !- Number of Vertices
  30, -15, 0,                             !- X,Y,Z Vertex 1 {m}
  30, -5, 0,                              !- X,Y,Z Vertex 2 {m}
  30, -5, 7,                              !- X,Y,Z Vertex 3 {m}
  30, -15, 7;                             !- X,Y,Z Vertex 4 {m}

OS:Surface,
  {91bc4d72-3b57-40cf-b190-9a853e1d2b4b}, !- Handle
  Surface 23,                             !- Name
  Wall,                                   !- Surface Type
  ,                                       !- Construction Name
  {96f7d247-10e4-415c-9408-8ffb9a15dd35}, !- Space Name
  Surface,                                !- Outside Boundary Condition
  {d6f3dcce-ad34-4f10-8f3e-054226034dee}, !- Outside Boundary Condition Object
  NoSun,                                  !- Sun Exposure
  NoWind,                                 !- Wind Exposure
  ,                                       !- View Factor to Ground
  ,                                       !- Number of Vertices
  30, -5, 0,                              !- X,Y,Z Vertex 1 {m}
  10, -5, 0,                              !- X,Y,Z Vertex 2 {m}
  10, -5, 7,                              !- X,Y,Z Vertex 3 {m}
  30, -5, 7;                              !- X,Y,Z Vertex 4 {m}

OS:Surface,
  {9d3a1932-a48e-4b83-8549-1699a2181280}, !- Handle
  Surface 24,                             !- Name
  RoofCeiling,                            !- Surface Type
  ,                                       !- Construction Name
  {96f7d247-10e4-415c-9408-8ffb9a15dd35}, !- Space Name
  Outdoors,                               !- Outside Boundary Condition
  ,                                       !- Outside Boundary Condition Object
  SunExposed,                             !- Sun Exposure
  WindExposed,                            !- Wind Exposure
  ,                                       !- View Factor to Ground
  ,                                       !- Number of Vertices
  10, -15, 7,                             !- X,Y,Z Vertex 1 {m}
  30, -15, 7,                             !- X,Y,Z Vertex 2 {m}
  30, -5, 7,                              !- X,Y,Z Vertex 3 {m}
  10, -5, 7;                              !- X,Y,Z Vertex 4 {m}

OS:Space,
  {66f9b319-de08-49ed-9df6-036e74bbfe36}, !- Handle
  Space_4_0,                              !- Name
  ,                                       !- Space Type Name
  ,                                       !- Default Construction Set Name
  ,                                       !- Default Schedule Set Name
  ,                                       !- Direction of Relative North {deg}
  ,                                       !- X Origin {m}
  ,                                       !- Y Origin {m}
  ,                                       !- Z Origin {m}
  {a70428c7-a092-4f45-826a-26b5b6914222}, !- Building Story Name
  {e63f6b30-c4ad-4a89-82bb-d70cc4ea2ffc}; !- Thermal Zone Name

OS:Surface,
  {b5b17106-9c0e-4854-973a-f8e2c62e7556}, !- Handle
  Surface 25,                             !- Name
  Floor,                                  !- Surface Type
  ,                                       !- Construction Name
  {66f9b319-de08-49ed-9df6-036e74bbfe36}, !- Space Name
  Surface,                                !- Outside Boundary Condition
  {4070b6f7-1858-403f-91ff-37c2496abd00}, !- Outside Boundary Condition Object
  NoSun,                                  !- Sun Exposure
  NoWind,                                 !- Wind Exposure
  ,                                       !- View Factor to Ground
  ,                                       !- Number of Vertices
  10, 10, 7,                              !- X,Y,Z Vertex 1 {m}
  10, -10, 7,                             !- X,Y,Z Vertex 2 {m}
  -10, -10, 7,                            !- X,Y,Z Vertex 3 {m}
  -10, 10, 7;                             !- X,Y,Z Vertex 4 {m}

OS:Surface,
  {118297b6-5081-4aaa-91df-62bcaf47df13}, !- Handle
  Surface 26,                             !- Name
  Wall,                                   !- Surface Type
  ,                                       !- Construction Name
  {66f9b319-de08-49ed-9df6-036e74bbfe36}, !- Space Name
  Outdoors,                               !- Outside Boundary Condition
  ,                                       !- Outside Boundary Condition Object
  SunExposed,                             !- Sun Exposure
  WindExposed,                            !- Wind Exposure
  ,                                       !- View Factor to Ground