
OS:Version,
  {91541ed0-5cd9-467d-a8be-eb629df0382e}, !- Handle
  1.12.2;                                 !- Version Identifier

OS:SpaceType,
  {3c047f2a-7574-4951-b4c3-1a11bef50e39}, !- Handle
  189.1-2009 - Office - Lobby - CZ4-8,    !- Name
  ,                                       !- Default Construction Set Name
  {11519331-af87-4670-b259-94511a244df7}, !- Default Schedule Set Name
  {fae8ceaf-c8e3-4d8c-be34-36c97be02d2b}, !- Group Rendering Name
  {01314c75-3841-4c3f-860b-1d966c564849}, !- Design Specification Outdoor Air Object Name
  Office,                                 !- Standards Building Type
  Lobby;                                  !- Standards Space Type

OS:DefaultScheduleSet,
  {11519331-af87-4670-b259-94511a244df7}, !- Handle
  189.1-2009 - Office - Lobby - CZ4-8 Schedule Set, !- Name
  ,                                       !- Hours of Operation Schedule Name
  {1dd243db-b6d2-474d-879b-240cf82fb3af}, !- Number of People Schedule Name
  {282c6ad8-5f9f-443d-81d5-148ccb41a94c}, !- People Activity Level Schedule Name
  {d3a0d22b-2ee2-4ed4-89df-10e3204299c7}, !- Lighting Schedule Name
  {40605461-df00-40a6-880b-6839866f425b}, !- Electric Equipment Schedule Name
  ,                                       !- Gas Equipment Schedule Name
  ,                                       !- Hot Water Equipment Schedule Name
  {985e5a6f-1278-4857-8756-7a0be1d2949a}, !- Infiltration Schedule Name
  ,                                       !- Steam Equipment Schedule Name
  ;                                       !- Other Equipment Schedule Name

OS:Rendering:Color,
  {fae8ceaf-c8e3-4d8c-be34-36c97be02d2b}, !- Handle
  Rendering Color 23,                     !- Name
  230,                                    !- Rendering Red Value
  157,                                    !- Rendering Green Value
  120;                                    !- Rendering Blue Value

OS:DesignSpecification:OutdoorAir,
  {01314c75-3841-4c3f-860b-1d966c564849}, !- Handle
  189.1-2009 - Office - Lobby - CZ4-8 Ventilation, !- Name
  Sum,                                    !- Outdoor Air Method
  0.007079211648,                         !- Outdoor Air Flow per Person {m3/s-person}
  ,                                       !- Outdoor Air Flow per Floor Area {m3/s-m2}
  ,                                       !- Outdoor Air Flow Rate {m3/s}
  ,                                       !- Outdoor Air Flow Air Changes per Hour {1/hr}
  ;                                       !- Outdoor Air Flow Rate Fraction Schedule Name

OS:Schedule:Ruleset,
  {1dd243db-b6d2-474d-879b-240cf82fb3af}, ! Handle
  Office Misc Occ,                        ! Name
  {d1fb9e21-fef7-4be7-8e59-8f6e50479579}, ! Schedule Type Limits Name
  {2ba02edf-427c-4b23-9e91-5e853f65e2be}, ! Default Day Schedule Name
  {0f9ae710-c344-4122-86a3-cd48bd15336f}, ! Summer Design Day Schedule Name
  {7d4dd1d6-aaad-4fcb-9cfd-778c5ab3afa9}; ! Winter Design Day Schedule Name

OS:Schedule:Day,
  {2ba02edf-427c-4b23-9e91-5e853f65e2be}, ! Handle
  Office Bldg Occ Default Schedule 1,     ! Name
  {d1fb9e21-fef7-4be7-8e59-8f6e50479579}, ! Schedule Type Limits Name
  ,                                       ! Interpolate to Timestep
  6,                                      !- Hour 1
  0,                                      !- Minute 1
  0,                                      !- Value Until Time 1
  7,                                      !- Hour 2
  0,                                      !- Minute 2
  0.100000001490116,                      !- Value Until Time 2
  8,                                      !- Hour 3
  0,                                      !- Minute 3
  0.200000002980232,                      !- Value Until Time 3
  20,                                     !- Hour 4
  0,                                      !- Minute 4
  0.400000005960464,                      !- Value Until Time 4
  22,                                     !- Hour 5
  0,                                      !- Minute 5
  0.100000001490116,                      !- Value Until Time 5
  24,                                     !- Hour 6
  0,                                      !- Minute 6
  0.0500000007450581;                     !- Value Until Time 6

OS:Schedule:Day,
  {0f9ae710-c344-4122-86a3-cd48bd15336f}, ! Handle
  Office Bldg Occ Summer Design Day 1,    ! Name
  {d1fb9e21-fef7-4be7-8e59-8f6e50479579}, ! Schedule Type Limits Name
  ,                                       ! Interpolate to Timestep
  6,                                      ! Hour 1
  0,                                      ! Minute 1
  0,                                      ! Value Until Time 1
  22,                                     ! Hour 2
  0,                                      ! Minute 2
  1,                                      ! Value Until Time 2
  24,                                     ! Hour 3
  0,                                      ! Minute 3
  0.050000000000000003;                   ! Value Until Time 3

OS:Schedule:Day,
  {7d4dd1d6-aaad-4fcb-9cfd-778c5ab3afa9}, ! Handle
  Office Bldg Occ Winter Design Day 1,    ! Name
  {d1fb9e21-fef7-4be7-8e59-8f6e50479579}, ! Schedule Type Limits Name
  ,                                       ! Interpolate to Timestep
  24,                                     ! Hour 1
  0,                                      ! Minute 1
  0;                                      ! Value Until Time 1

OS:Schedule:Rule,
  {88d15d72-4f07-4f3a-afff-3a0ad3d8a27c}, ! Handle
  Office Misc Occ Rule 1,                 ! Name
  {1dd243db-b6d2-474d-879b-240cf82fb3af}, ! Schedule Ruleset Name
  0,                                      ! Rule Order
  {ff075f7a-9107-466d-9b3d-1c114f2daef4}, ! Day Schedule Name
  Yes,                                    ! Apply Sunday
  No,                                     ! Apply Monday
  No,                                     ! Apply Tuesday
  No,                                     ! Apply Wednesday
  No,                                     ! Apply Thursday
  No,                                     ! Apply Friday
  No,                                     ! Apply Saturday
  ,                                       ! Apply Holiday
  DateRange,                              ! Date Specification Type
  1,                                      ! Start Month
  1,                                      ! Start Day
  12,                                     ! End Month
  31;                                     ! End Day

OS:Schedule:Rule,
  {fea7eb5a-40db-42ae-b13b-0b7b3b2db7ff}, ! Handle
  Office Misc Occ Rule 2,                 ! Name
  {1dd243db-b6d2-474d-879b-240cf82fb3af}, ! Schedule Ruleset Name
  1,                                      ! Rule Order
  {fa04ea20-1126-4b57-a7c6-52894c6a796b}, ! Day Schedule Name
  No,                                     ! Apply Sunday
  No,                                     ! Apply Monday
  No,                                     ! Apply Tuesday
  No,                                     ! Apply Wednesday
  No,                                     ! Apply Thursday
  No,                                     ! Apply Friday
  Yes,                                    ! Apply Saturday
  ,                                       ! Apply Holiday
  DateRange,                              ! Date Specification Type
  1,                                      ! Start Month
  1,                                      ! Start Day
  12,                                     ! End Month
  31;                                     ! End Day

OS:Schedule:Day,
  {ff075f7a-9107-466d-9b3d-1c114f2daef4}, ! Handle
  Office Bldg Occ Rule 1 Day Schedule 1,  ! Name
  {d1fb9e21-fef7-4be7-8e59-8f6e50479579}, ! Schedule Type Limits Name
  ,                                       ! Interpolate to Timestep
  24,                                     ! Hour 1
  0,                                      ! Minute 1
  0;                                      ! Value Until Time 1

OS:Schedule:Day,
  {fa04ea20-1126-4b57-a7c6-52894c6a796b}, ! Handle
  Office Bldg Occ Rule 2 Day Schedule 1,  ! Name
  {d1fb9e21-fef7-4be7-8e59-8f6e50479579}, ! Schedule Type Limits Name
  ,                                       ! Interpolate to Timestep
  6,                                      !- Hour 1
  0,                                      !- Minute 1
  0,                                      !- Value Until Time 1
  8,                                      !- Hour 2
  0,                                      !- Minute 2
  0.100000001490116,                      !- Value Until Time 2
  14,                                     !- Hour 3
  0,                                      !- Minute 3
  0.25,                                   !- Value Until Time 3
  17,                                     !- Hour 4
  0,                                      !- Minute 4
  0.100000001490116,                      !- Value Until Time 4
  24,                                     !- Hour 5
  0,                                      !- Minute 5
  0;                                      !- Value Until Time 5

OS:Schedule:Ruleset,
  {282c6ad8-5f9f-443d-81d5-148ccb41a94c}, ! Handle
  Office Activity,                        ! Name
  {cc871cd0-3916-4ee3-9710-151bbaabf0b9}, ! Schedule Type Limits Name
  {ccd4d841-3b58-49c7-be60-ba7e271597f2}, ! Default Day Schedule Name
  {5f44e9e4-a164-4d2a-8b0c-fe46d3b79ceb}, ! Summer Design Day Schedule Name
  {174526b3-f515-4bc9-97c2-cef466b4476a}; ! Winter Design Day Schedule Name

OS:Schedule:Day,
  {ccd4d841-3b58-49c7-be60-ba7e271597f2}, ! Handle
  Office Activity Default Schedule,       ! Name
  {cc871cd0-3916-4ee3-9710-151bbaabf0b9}, ! Schedule Type Limits Name
  ,                                       ! Interpolate to Timestep
  24,                                     !- Hour 1
  0,                                      !- Minute 1
  132;                                    !- Value Until Time 1

OS:Schedule:Day,
  {5f44e9e4-a164-4d2a-8b0c-fe46d3b79ceb}, ! Handle
  Office Activity Summer Design Day,      ! Name
  {cc871cd0-3916-4ee3-9710-151bbaabf0b9}, ! Schedule Type Limits Name
  ,                                       ! Interpolate to Timestep
  24,                                     !- Hour 1
  0,                                      !- Minute 1
  132;                                    !- Value Until Time 1

OS:Schedule:Day,
  {174526b3-f515-4bc9-97c2-cef466b4476a}, ! Handle
  Office Activity Winter Design Day,      ! Name
  {cc871cd0-3916-4ee3-9710-151bbaabf0b9}, ! Schedule Type Limits Name
  ,                                       ! Interpolate to Timestep
  24,                                     !- Hour 1
  0,                                      !- Minute 1
  132;                                    !- Value Until Time 1

OS:Schedule:Ruleset,
  {d3a0d22b-2ee2-4ed4-89df-10e3204299c7}, ! Handle
  Office Bldg Light,                      ! Name
  {d1fb9e21-fef7-4be7-8e59-8f6e50479579}, ! Schedule Type Limits Name
  {c5fba622-f169-4ff0-850b-df02f1ecf8f3}, ! Default Day Schedule Name
  {7ac8d645-3171-425b-a4ca-43e8de794b5a}, ! Summer Design Day Schedule Name
  {b281acf3-75be-457d-bc9f-8bb5a2a737ef}; ! Winter Design Day Schedule Name

OS:Schedule:Day,
  {c5fba622-f169-4ff0-850b-df02f1ecf8f3}, ! Handle
  Office Bldg Light Default Schedule,     ! Name
  {d1fb9e21-fef7-4be7-8e59-8f6e50479579}, ! Schedule Type Limits Name
  ,                                       ! Interpolate to Timestep
  5,                                      !- Hour 1
  0,                                      !- Minute 1
  0.05,                                   !- Value Until Time 1
  7,                                      !- Hour 2
  0,                                      !- Minute 2
  0.1,                                    !- Value Until Time 2
  8,                                      !- Hour 3
  0,                                      !- Minute 3
  0.3,                                    !- Value Until Time 3
  17,                                     !- Hour 4
  0,                                      !- Minute 4
  0.9,                                    !- Value Until Time 4
  18,                                     !- Hour 5
  0,                                      !- Minute 5
  0.7,                                    !- Value Until Time 5
  20,                                     !- Hour 6
  0,                                      !- Minute 6
  0.5,                                    !- Value Until Time 6
  22,                                     !- Hour 7
  0,                                      !- Minute 7
  0.3,                                    !- Value Until Time 7
  23,                                     !- Hour 8
  0,                                      !- Minute 8
  0.1,                                    !- Value Until Time 8
  24,                                     !- Hour 9
  0,                                      !- Minute 9
  0.05;                                   !- Value Until Time 9

OS:Schedule:Day,
  {7ac8d645-3171-425b-a4ca-43e8de794b5a}, ! Handle
  Office Bldg Light Summer Design Day,    ! Name
  {d1fb9e21-fef7-4be7-8e59-8f6e50479579}, ! Schedule Type Limits Name
  ,                                       ! Interpolate to Timestep
  24,                                     ! Hour 1
  0,                                      ! Minute 1
  1;                                      ! Value Until Time 1

OS:Schedule:Day,
  {b281acf3-75be-457d-bc9f-8bb5a2a737ef}, ! Handle
  Office Bldg Light Winter Design Day,    ! Name
  {d1fb9e21-fef7-4be7-8e59-8f6e50479579}, ! Schedule Type Limits Name
  ,                                       ! Interpolate to Timestep
  24,                                     ! Hour 1
  0,                                      ! Minute 1
  0;                                      ! Value Until Time 1

OS:Schedule:Rule,
  {5d446855-cb7c-4065-a0a6-6da6b69c21f0}, ! Handle
  Office Bldg Light Rule 1,               ! Name
  {d3a0d22b-2ee2-4ed4-89df-10e3204299c7}, ! Schedule Ruleset Name
  0,                                      ! Rule Order
  {e5f52e15-59bc-4838-b36e-78b736785d38}, ! Day Schedule Name
  Yes,                                    ! Apply Sunday
  No,                                     ! Apply Monday
  No,                                     ! Apply Tuesday
  No,                                     ! Apply Wednesday
  No,                                     ! Apply Thursday
  No,                                     ! Apply Friday
  No,                                     ! Apply Saturday
  ,                                       ! Apply Holiday
  DateRange,                              ! Date Specification Type
  1,                                      ! Start Month
  1,                                      ! Start Day
  12,                                     ! End Month
  31;                                     ! End Day

OS:Schedule:Rule,
  {90992312-81a5-441e-8722-7f7ba361b756}, ! Handle
  Office Bldg Light Rule 2,               ! Name
  {d3a0d22b-2ee2-4ed4-89df-10e3204299c7}, ! Schedule Ruleset Name
  1,                                      ! Rule Order
  {73acc577-8268-4d6a-836d-dae7b197bdc1}, ! Day Schedule Name
  No,                                     ! Apply Sunday
  No,                                     ! Apply Monday
  No,                                     ! Apply Tuesday
  No,                                     ! Apply Wednesday
  No,                                     ! Apply Thursday
  No,                                     ! Apply Friday
  Yes,                                    ! Apply Saturday
  ,                                       ! Apply Holiday
  DateRange,                              ! Date Specification Type
  1,                                      ! Start Month
  1,                                      ! Start Day
  12,                                     ! End Month
  31;                                     ! End Day

OS:Schedule:Day,
  {e5f52e15-59bc-4838-b36e-78b736785d38}, ! Handle
  Office Bldg Light Rule 1 Day Schedule,  ! Name
  {d1fb9e21-fef7-4be7-8e59-8f6e50479579}, ! Schedule Type Limits Name
  ,                                       ! Interpolate to Timestep
  24,                                     ! Hour 1
  0,                                      ! Minute 1
  0.050000000000000003;                   ! Value Until Time 1

OS:Schedule:Day,
  {73acc577-8268-4d6a-836d-dae7b197bdc1}, ! Handle
  Office Bldg Light Rule 2 Day Schedule,  ! Name
  {d1fb9e21-fef7-4be7-8e59-8f6e50479579}, ! Schedule Type Limits Name
  ,                                       ! Interpolate to Timestep
  6,                                      ! Hour 1
  0,                                      ! Minute 1
  0.050000000000000003,                   ! Value Until Time 1
  8,                                      ! Hour 2
  0,                                      ! Minute 2
  0.10000000000000001,                    ! Value Until Time 2
  14,                                     ! Hour 3
  0,                                      ! Minute 3
  0.5,                                    ! Value Until Time 3
  17,                                     ! Hour 4
  0,                                      ! Minute 4
  0.14999999999999999,                    ! Value Until Time 4
  24,                                     ! Hour 5
  0,                                      ! Minute 5
  0.050000000000000003;                   ! Value Until Time 5

OS:Schedule:Ruleset,
  {40605461-df00-40a6-880b-6839866f425b}, ! Handle
  Office Bldg Equip,                      ! Name
  {d1fb9e21-fef7-4be7-8e59-8f6e50479579}, ! Schedule Type Limits Name
  {c90d6ab0-d9e2-416a-adfe-e9eb661a328b}, ! Default Day Schedule Name
  {7bfc14a3-ba6b-499c-a4c9-9985e8a00524}, ! Summer Design Day Schedule Name
  {f6c90041-7cfd-49e2-afbc-19b61359ab9e}; ! Winter Design Day Schedule Name

OS:Schedule:Day,
  {c90d6ab0-d9e2-416a-adfe-e9eb661a328b}, ! Handle
  Office Bldg Equip Default Schedule,     ! Name
  {d1fb9e21-fef7-4be7-8e59-8f6e50479579}, ! Schedule Type Limits Name
  ,                                       ! Interpolate to Timestep
  8,                                      !- Hour 1
  0,                                      !- Minute 1
  0.4,                                    !- Value Until Time 1
  12,                                     !- Hour 2
  0,                                      !- Minute 2
  0.9,                                    !- Value Until Time 2
  13,                                     !- Hour 3
  0,                                      !- Minute 3
  0.8,                                    !- Value Until Time 3
  17,                                     !- Hour 4
  0,                                      !- Minute 4
  0.9,                                    !- Value Until Time 4
  18,                                     !- Hour 5
  0,                                      !- Minute 5
  0.8,                                    !- Value Until Time 5
  20,                                     !- Hour 6
  0,                                      !- Minute 6
  0.6,                                    !- Value Until Time 6
  22,                                     !- Hour 7
  0,                                      !- Minute 7
  0.5,                                    !- Value Until Time 7
  24,                                     !- Hour 8
  0,                                      !- Minute 8
  0.4;                                    !- Value Until Time 8

OS:Schedule:Day,
  {7bfc14a3-ba6b-499c-a4c9-9985e8a00524}, ! Handle
  Office Bldg Equip Summer Design Day,    ! Name
  {d1fb9e21-fef7-4be7-8e59-8f6e50479579}, ! Schedule Type Limits Name
  ,                                       ! Interpolate to Timestep
  24,                                     ! Hour 1
  0,                                      ! Minute 1
  1;                                      ! Value Until Time 1

OS:Schedule:Day,
  {f6c90041-7cfd-49e2-afbc-19b61359ab9e}, ! Handle
  Office Bldg Equip Winter Design Day,    ! Name
  {d1fb9e21-fef7-4be7-8e59-8f6e50479579}, ! Schedule Type Limits Name
  ,                                       ! Interpolate to Timestep
  24,                                     ! Hour 1
  0,                                      ! Minute 1
  0;                                      ! Value Until Time 1

OS:Schedule:Rule,
  {3116b256-a746-4788-a9b3-9f1dd1546faf}, ! Handle
  Office Bldg Equip Rule 1,               ! Name
  {40605461-df00-40a6-880b-6839866f425b}, ! Schedule Ruleset Name
  0,                                      ! Rule Order
  {191b0eb7-a74d-4641-9e8e-8fa6292867d4}, ! Day Schedule Name
  Yes,                                    ! Apply Sunday
  No,                                     ! Apply Monday
  No,                                     ! Apply Tuesday
  No,                                     ! Apply Wednesday
  No,                                     ! Apply Thursday
  No,                                     ! Apply Friday
  No,                                     ! Apply Saturday
  ,                                       ! Apply Holiday
  DateRange,                              ! Date Specification Type
  1,                                      ! Start Month
  1,                                      ! Start Day
  12,                                     ! End Month
  31;                                     ! End Day

OS:Schedule:Rule,
  {cf15cee2-b6bc-44de-ae41-289c29bcc616}, ! Handle
  Office Bldg Equip Rule 2,               ! Name
  {40605461-df00-40a6-880b-6839866f425b}, ! Schedule Ruleset Name
  1,                                      ! Rule Order
  {671a44fb-842e-4e9b-8cb2-ed22f563991a}, ! Day Schedule Name
  No,                                     ! Apply Sunday
  No,                                     ! Apply Monday
  No,                                     ! Apply Tuesday
  No,                                     ! Apply Wednesday
  No,                                     ! Apply Thursday
  No,                                     ! Apply Friday
  Yes,                                    ! Apply Saturday
  ,                                       ! Apply Holiday
  DateRange,                              ! Date Specification Type
  1,                                      ! Start Month
  1,                                      ! Start Day
  12,                                     ! End Month
  31;                                     ! End Day

OS:Schedule:Day,
  {191b0eb7-a74d-4641-9e8e-8fa6292867d4}, ! Handle
  Office Bldg Equip Rule 1 Day Schedule,  ! Name
  {d1fb9e21-fef7-4be7-8e59-8f6e50479579}, ! Schedule Type Limits Name
  ,                                       ! Interpolate to Timestep
  24,                                     ! Hour 1
  0,                                      ! Minute 1
  0.29999999999999999;                    ! Value Until Time 1

OS:Schedule:Day,
  {671a44fb-842e-4e9b-8cb2-ed22f563991a}, ! Handle
  Office Bldg Equip Rule 2 Day Schedule,  ! Name
  {d1fb9e21-fef7-4be7-8e59-8f6e50479579}, ! Schedule Type Limits Name
  ,                                       ! Interpolate to Timestep
  6,                                      ! Hour 1
  0,                                      ! Minute 1
  0.29999999999999999,                    ! Value Until Time 1
  8,                                      ! Hour 2
  0,                                      ! Minute 2
  0.40000000000000002,                    ! Value Until Time 2
  14,                                     ! Hour 3
  0,                                      ! Minute 3
  0.5,                                    ! Value Until Time 3
  17,                                     ! Hour 4
  0,                                      ! Minute 4
  0.34999999999999998,                    ! Value Until Time 4
  24,                                     ! Hour 5
  0,                                      ! Minute 5
  0.29999999999999999;                    ! Value Until Time 5

OS:Schedule:Ruleset,
  {985e5a6f-1278-4857-8756-7a0be1d2949a}, ! Handle
  Office Infil Quarter On,                ! Name
  {d1fb9e21-fef7-4be7-8e59-8f6e50479579}, ! Schedule Type Limits Name
  {18699d55-d83f-45bf-8e90-96b50e3e6d4e}, ! Default Day Schedule Name
  {0ae500fa-b175-44fb-8a52-50110c31e93e}, ! Summer Design Day Schedule Name
  {7a6dd8a1-05bd-4a13-99bb-7e4d9acb4596}; ! Winter Design Day Schedule Name

OS:Schedule:Day,
  {18699d55-d83f-45bf-8e90-96b50e3e6d4e}, ! Handle
  Office Infil Quarter On Default Schedule, ! Name
  {d1fb9e21-fef7-4be7-8e59-8f6e50479579}, ! Schedule Type Limits Name
  ,                                       ! Interpolate to Timestep
  6,                                      !- Hour 1
  0,                                      !- Minute 1
  1,                                      !- Value Until Time 1
  22,                                     !- Hour 2
  0,                                      !- Minute 2
  0.25,                                   !- Value Until Time 2
  24,                                     !- Hour 3
  0,                                      !- Minute 3
  1;                                      !- Value Until Time 3

OS:Schedule:Day,
  {0ae500fa-b175-44fb-8a52-50110c31e93e}, ! Handle
  Office Infil Quarter On Summer Design Day, ! Name
  {d1fb9e21-fef7-4be7-8e59-8f6e50479579}, ! Schedule Type Limits Name
  ,                                       ! Interpolate to Timestep
  6,                                      ! Hour 1
  0,                                      ! Minute 1
  1,                                      ! Value Until Time 1
  22,                                     ! Hour 2
  0,                                      ! Minute 2
  0.25,                                   ! Value Until Time 2
  24,                                     ! Hour 3
  0,                                      ! Minute 3
  1;                                      ! Value Until Time 3

OS:Schedule:Day,
  {7a6dd8a1-05bd-4a13-99bb-7e4d9acb4596}, ! Handle
  Office Infil Quarter On Winter Design Day, ! Name
  {d1fb9e21-fef7-4be7-8e59-8f6e50479579}, ! Schedule Type Limits Name
  ,                                       ! Interpolate to Timestep
  6,                                      ! Hour 1
  0,                                      ! Minute 1
  1,                                      ! Value Until Time 1
  18,                                     ! Hour 2
  0,                                      ! Minute 2
  0.25,                                   ! Value Until Time 2
  24,                                     ! Hour 3
  0,                                      ! Minute 3
  1;                                      ! Value Until Time 3

OS:Schedule:Rule,
  {5e114eca-7680-4aec-b95f-0d7335efd68d}, ! Handle
  Office Infil Quarter On Rule 1,         ! Name
  {985e5a6f-1278-4857-8756-7a0be1d2949a}, ! Schedule Ruleset Name
  0,                                      ! Rule Order
  {dbdc25c8-05d6-4a09-9287-500111efbd4e}, ! Day Schedule Name
  Yes,                                    ! Apply Sunday
  No,                                     ! Apply Monday
  No,                                     ! Apply Tuesday
  No,                                     ! Apply Wednesday
  No,                                     ! Apply Thursday
  No,                                     ! Apply Friday
  No,                                     ! Apply Saturday
  ,                                       ! Apply Holiday
  DateRange,                              ! Date Specification Type
  1,                                      ! Start Month
  1,                                      ! Start Day
  12,                                     ! End Month
  31;                                     ! End Day

OS:Schedule:Rule,
  {2604e9e3-5488-415c-a7f1-7ff10dc11d90}, ! Handle
  Office Infil Quarter On Rule 2,         ! Name
  {985e5a6f-1278-4857-8756-7a0be1d2949a}, ! Schedule Ruleset Name
  1,                                      ! Rule Order
  {a73259fc-d7c6-4184-baa6-d949e0426282}, ! Day Schedule Name
  No,                                     ! Apply Sunday
  No,                                     ! Apply Monday
  No,                                     ! Apply Tuesday
  No,                                     ! Apply Wednesday
  No,                                     ! Apply Thursday
  No,                                     ! Apply Friday
  Yes,                                    ! Apply Saturday
  ,                                       ! Apply Holiday
  DateRange,                              ! Date Specification Type
  1,                                      ! Start Month
  1,                                      ! Start Day
  12,                                     ! End Month
  31;                                     ! End Day

OS:Schedule:Day,
  {dbdc25c8-05d6-4a09-9287-500111efbd4e}, ! Handle
  Office Infil Quarter On Rule 1 Day Schedule, ! Name
  {d1fb9e21-fef7-4be7-8e59-8f6e50479579}, ! Schedule Type Limits Name
  ,                                       ! Interpolate to Timestep
  24,                                     ! Hour 1
  0,                                      ! Minute 1
  1;                                      ! Value Until Time 1

OS:Schedule:Day,
  {a73259fc-d7c6-4184-baa6-d949e0426282}, ! Handle
  Office Infil Quarter On Rule 2 Day Schedule, ! Name
  {d1fb9e21-fef7-4be7-8e59-8f6e50479579}, ! Schedule Type Limits Name
  ,                                       ! Interpolate to Timestep
  6,                                      ! Hour 1
  0,                                      ! Minute 1
  1,                                      ! Value Until Time 1
  18,                                     ! Hour 2
  0,                                      ! Minute 2
  0.25,                                   ! Value Until Time 2
  24,                                     ! Hour 3
  0,                                      ! Minute 3
  1;                                      ! Value Until Time 3

OS:ScheduleTypeLimits,
  {d1fb9e21-fef7-4be7-8e59-8f6e50479579}, ! Handle
  Fraction,                               ! Name