
OS:Version,
  {c8305618-c090-46b6-b86c-58e96bf58a15}, !- Handle
  1.9.0;                                  !- Version Identifier

OS:Facility,
  {1960e0ac-d99e-4251-9419-034ef1bb201e}; !- Handle

OS:Building,
  {86dab3b2-58ee-4028-9c24-9476db123fd7}, !- Handle
  Building 1,                             !- Name
  ,                                       !- Building Sector Type
  ,                                       !- North Axis {deg}
  ,                                       !- Nominal Floor to Floor Height {m}
  ,                                       !- Space Type Name
  ,                                       !- Default Construction Set Name
  ;                                       !- Default Schedule Set Name

OS:BuildingStory,
  {abdba1cc-9b54-4156-9b26-2899aec87e37}, !- Handle
  Level 1,                                !- Name
  ,                                       !- Nominal Z Coordinate {m}
  ,                                       !- Nominal Floor to Floor Height {m}
  ,                                       !- Default Construction Set Name
  ,                                       !- Default Schedule Set Name
  ;                                       !- Group Rendering Name

OS:BuildingStory,
  {a83a765b-3d10-4463-aa7a-29a620e8edbf}, !- Handle
  Level 2,                                !- Name
  ,                                       !- Nominal Z Coordinate {m}
  7,                                      !- Nominal Floor to Floor Height {m}
  ,                                       !- Default Construction Set Name
  ,                                       !- Default Schedule Set Name
  ;                                       !- Group Rendering Name

OS:BuildingStory,
  {f4dd4000-86d5-4040-9e07-41aeef5f765c}, !- Handle
  Level 3,                                !- Name
  ,                                       !- Nominal Z Coordinate {m}
  14,                                     !- Nominal Floor to Floor Height {m}
  ,                                       !- Default Construction Set Name
  ,                                       !- Default Schedule Set Name
  ;                                       !- Group Rendering Name

OS:Space,
  {291e03c7-13f2-471f-b57f-65379f821804}, !- Handle
  Space_0_0,                              !- Name
  ,                                       !- Space Type Name
  ,                                       !- Default Construction Set Name
  ,                                       !- Default Schedule Set Name
  ,                                       !- Direction of Relative North {deg}
  ,                                       !- X Origin {m}
  ,                                       !- Y Origin {m}
  ,                                       !- Z Origin {m}
  {abdba1cc-9b54-4156-9b26-2899aec87e37}, !- Building Story Name
  {f496c8ec-e105-4594-b5d3-8286df944116}; !- Thermal Zone Name

OS:Surface,
  {2d32bdf4-a381-4c87-b48c-4602dcf5d00e}, !- Handle
  Surface 1,                              !- Name
  Floor,                                  !- Surface Type
  ,                                       !- Construction Name
  {291e03c7-13f2-471f-b57f-65379f821804}, !- Space Name
  Ground,                                 !- Outside Boundary Condition
  ,                                       !- Outside Boundary Condition Object
  NoSun,                                  !- Sun Exposure
  NoWind,                                 !- Wind Exposure
  ,                                       !- View Factor to Ground
  ,                                       !- Number of Vertices
  -10, -14, 0,                            !- X,Y,Z Vertex 1 {m}
  -10, 14, 0,                             !- X,Y,Z Vertex 2 {m}
  10, 14, 0,                              !- X,Y,Z Vertex 3 {m}
  10, -14, 0;                             !- X,Y,Z Vertex 4 {m}

OS:Surface,
  {f5af85b8-485d-4844-bb84-af434f4ee63f}, !- Handle
  Surface 2,                              !- Name
  Wall,                                   !- Surface Type
  ,                                       !- Construction Name
  {291e03c7-13f2-471f-b57f-65379f821804}, !- Space Name
  Outdoors,                               !- Outside Boundary Condition
  ,                                       !- Outside Boundary Condition Object
  SunExposed,                             !- Sun Exposure
  WindExposed,                            !- Wind Exposure
  ,                                       !- View Factor to Ground
  ,                                       !- Number of Vertices
  -10, -14, 0,                            !- X,Y,Z Vertex 1 {m}
  -10, -14, 7,                            !- X,Y,Z Vertex 2 {m}
  -10, 14, 7,                             !- X,Y,Z Vertex 3 {m}
  -10, 14, 0;                             !- X,Y,Z Vertex 4 {m}

OS:Surface,
  {6ae18af9-bee2-498f-94c4-0e131695f798}, !- Handle
  Surface 3,                              !- Name
  Wall,                                   !- Surface Type
  ,                                       !- Construction Name
  {291e03c7-13f2-471f-b57f-65379f821804}, !- Space Name
  Outdoors,                               !- Outside Boundary Condition
  ,                                       !- Outside Boundary Condition Object
  SunExposed,                             !- Sun Exposure
  WindExposed,                            !- Wind Exposure
  ,                                       !- View Factor to Ground
  ,                                       !- Number of Vertices
  -10, -14, 0,                            !- X,Y,Z Vertex 1 {m}
  10, -14, 0,                             !- X,Y,Z Vertex 2 {m}
  10, -14, 7,                             !- X,Y,Z Vertex 3 {m}
  -10, -14, 7;                            !- X,Y,Z Vertex 4 {m}

OS:Surface,
  {58d231c8-5007-4ba6-9997-df0064117f01}, !- Handle
  Surface 4,                              !- Name
  Wall,                                   !- Surface Type
  ,                                       !- Construction Name
  {291e03c7-13f2-471f-b57f-65379f821804}, !- Space Name
  Surface,                                !- Outside Boundary Condition
  {b7cd686e-b6f2-4146-86a1-560d447157e4}, !- Outside Boundary Condition Object
  NoSun,                                  !- Sun Exposure
  NoWind,                                 !- Wind Exposure
  ,                                       !- View Factor to Ground
  ,                                       !- Number of Vertices
  10, -5, 7,                              !- X,Y,Z Vertex 1 {m}
  10, -5, 0,                              !- X,Y,Z Vertex 2 {m}
  10, 5, 0,                               !- X,Y,Z Vertex 3 {m}
  10, 5, 7;                               !- X,Y,Z Vertex 4 {m}

OS:Surface,
  {9bfdd445-76a6-4c84-b23e-89efe5feec34}, !- Handle
  Surface 5,                              !- Name
  Wall,                                   !- Surface Type
  ,                                       !- Construction Name
  {291e03c7-13f2-471f-b57f-65379f821804}, !- Space Name
  Outdoors,                               !- Outside Boundary Condition
  ,                                       !- Outside Boundary Condition Object
  SunExposed,                             !- Sun Exposure
  WindExposed,                            !- Wind Exposure
  ,                                       !- View Factor to Ground
  ,                                       !- Number of Vertices
  10, 14, 0,                              !- X,Y,Z Vertex 1 {m}
  -10, 14, 0,                             !- X,Y,Z Vertex 2 {m}
  -10, 14, 7,                             !- X,Y,Z Vertex 3 {m}
  10, 14, 7;                              !- X,Y,Z Vertex 4 {m}

OS:Surface,
  {e5da7d05-1427-4edc-9f8f-ca1e30dc8301}, !- Handle
  Surface 6,                              !- Name
  RoofCeiling,                            !- Surface Type
  ,                                       !- Construction Name
  {291e03c7-13f2-471f-b57f-65379f821804}, !- Space Name
  Surface,                                !- Outside Boundary Condition
  {2576fcd3-878a-4ec2-acc3-b9cc5dd50597}, !- Outside Boundary Condition Object
  NoSun,                                  !- Sun Exposure
  NoWind,                                 !- Wind Exposure
  ,                                       !- View Factor to Ground
  ,                                       !- Number of Vertices
  10, -10, 7,                             !- X,Y,Z Vertex 1 {m}
  10, 10, 7,                              !- X,Y,Z Vertex 2 {m}
  -10, 10, 7,                             !- X,Y,Z Vertex 3 {m}
  -10, -10, 7;                            !- X,Y,Z Vertex 4 {m}

OS:Space,
  {f3705800-91c9-4415-959a-088e30015d52}, !- Handle
  Space_2_0,                              !- Name
  ,                                       !- Space Type Name
  ,                                       !- Default Construction Set Name
  ,                                       !- Default Schedule Set Name
  ,                                       !- Direction of Relative North {deg}
  ,                                       !- X Origin {m}
  ,                                       !- Y Origin {m}
  ,                                       !- Z Origin {m}
  {abdba1cc-9b54-4156-9b26-2899aec87e37}, !- Building Story Name
  {a353301b-9fee-403d-8a18-67729c1685e6}; !- Thermal Zone Name

OS:Surface,
  {408e24ca-bef6-4ab9-9e12-5e88172f8cab}, !- Handle
  Surface 7,                              !- Name
  Floor,                                  !- Surface Type
  ,                                       !- Construction Name
  {f3705800-91c9-4415-959a-088e30015d52}, !- Space Name
  Ground,                                 !- Outside Boundary Condition
  ,                                       !- Outside Boundary Condition Object
  NoSun,                                  !- Sun Exposure
  NoWind,                                 !- Wind Exposure
  ,                                       !- View Factor to Ground
  ,                                       !- Number of Vertices
  10, 5, 0,                               !- X,Y,Z Vertex 1 {m}
  10, 15, 0,                              !- X,Y,Z Vertex 2 {m}
  30, 15, 0,                              !- X,Y,Z Vertex 3 {m}
  30, 5, 0;                               !- X,Y,Z Vertex 4 {m}

OS:Surface,
  {4bfed69c-c1cb-477b-927e-719ce0afc6b4}, !- Handle
  Surface 8,                              !- Name
  Wall,                                   !- Surface Type
  ,                                       !- Construction Name
  {f3705800-91c9-4415-959a-088e30015d52}, !- Space Name
  Surface,                                !- Outside Boundary Condition
  {5d916b2c-8f36-4e50-9fad-6f127d6d48e1}, !- Outside Boundary Condition Object
  NoSun,                                  !- Sun Exposure
  NoWind,                                 !- Wind Exposure
  ,                                       !- View Factor to Ground
  ,                                       !- Number of Vertices
  10, 14, 7,                              !- X,Y,Z Vertex 1 {m}
  10, 14, 0,                              !- X,Y,Z Vertex 2 {m}
  10, 5, 0,                               !- X,Y,Z Vertex 3 {m}
  10, 5, 7;                               !- X,Y,Z Vertex 4 {m}

OS:Surface,
  {c5bd9a90-7648-406c-a476-57e1ecb21616}, !- Handle
  Surface 9,                              !- Name
  Wall,                                   !- Surface Type
  ,                                       !- Construction Name
  {f3705800-91c9-4415-959a-088e30015d52}, !- Space Name
  Surface,                                !- Outside Boundary Condition
  {b2a77342-43b1-4c62-9d83-ace199d91829}, !- Outside Boundary Condition Object
  NoSun,                                  !- Sun Exposure
  NoWind,                                 !- Wind Exposure
  ,                                       !- View Factor to Ground
  ,                                       !- Number of Vertices
  10, 5, 0,                               !- X,Y,Z Vertex 1 {m}
  30, 5, 0,                               !- X,Y,Z Vertex 2 {m}
  30, 5, 7,                               !- X,Y,Z Vertex 3 {m}
  10, 5, 7;                               !- X,Y,Z Vertex 4 {m}

OS:Surface,
  {e8d813d2-a110-444a-a5c0-d9a9f3366c1b}, !- Handle
  Surface 10,                             !- Name
  Wall,                                   !- Surface Type
  ,                                       !- Construction Name
  {f3705800-91c9-4415-959a-088e30015d52}, !- Space Name
  Outdoors,                               !- Outside Boundary Condition
  ,                                       !- Outside Boundary Condition Object
  SunExposed,                             !- Sun Exposure
  WindExposed,                            !- Wind Exposure
  ,                                       !- View Factor to Ground
  ,                                       !- Number of Vertices
  30, 5, 0,                               !- X,Y,Z Vertex 1 {m}
  30, 15, 0,                              !- X,Y,Z Vertex 2 {m}
  30, 15, 7,                              !- X,Y,Z Vertex 3 {m}
  30, 5, 7;                               !- X,Y,Z Vertex 4 {m}

OS:Surface,
  {5aeaefe8-7300-4cfe-8131-7f01e4299683}, !- Handle
  Surface 11,                             !- Name
  Wall,                                   !- Surface Type
  ,                                       !- Construction Name
  {f3705800-91c9-4415-959a-088e30015d52}, !- Space Name
  Outdoors,                               !- Outside Boundary Condition
  ,                                       !- Outside Boundary Condition Object
  SunExposed,                             !- Sun Exposure
  WindExposed,                            !- Wind Exposure
  ,                                       !- View Factor to Ground
  ,                                       !- Number of Vertices
  30, 15, 0,                              !- X,Y,Z Vertex 1 {m}
  10, 15, 0,                              !- X,Y,Z Vertex 2 {m}
  10, 15, 7,                              !- X,Y,Z Vertex 3 {m}
  30, 15, 7;                              !- X,Y,Z Vertex 4 {m}

OS:Surface,
  {525f913a-edbf-446b-a927-6d644c33e810}, !- Handle
  Surface 12,                             !- Name
  RoofCeiling,                            !- Surface Type
  ,                                       !- Construction Name
  {f3705800-91c9-4415-959a-088e30015d52}, !- Space Name
  Outdoors,                               !- Outside Boundary Condition
  ,                                       !- Outside Boundary Condition Object
  SunExposed,                             !- Sun Exposure
  WindExposed,                            !- Wind Exposure
  ,                                       !- View Factor to Ground
  ,                                       !- Number of Vertices
  10, 5, 7,                               !- X,Y,Z Vertex 1 {m}
  30, 5, 7,                               !- X,Y,Z Vertex 2 {m}
  30, 15, 7,                              !- X,Y,Z Vertex 3 {m}
  10, 15, 7;                              !- X,Y,Z Vertex 4 {m}

OS:Space,
  {1742832c-83fa-46f1-a4be-445c2e918ec9}, !- Handle
  Space_1_0,                              !- Name
  ,                                       !- Space Type Name
  ,                                       !- Default Construction Set Name
  ,                                       !- Default Schedule Set Name
  ,                                       !- Direction of Relative North {deg}
  ,                                       !- X Origin {m}
  ,                                       !- Y Origin {m}
  ,                                       !- Z Origin {m}
  {abdba1cc-9b54-4156-9b26-2899aec87e37}, !- Building Story Name
  {b547d9b9-622c-4af5-aa95-933b95d7b0c2}; !- Thermal Zone Name

OS:Surface,
  {072b2877-c11a-4f30-8d3f-94af53299e20}, !- Handle
  Surface 13,                             !- Name
  Floor,                                  !- Surface Type
  ,                                       !- Construction Name
  {1742832c-83fa-46f1-a4be-445c2e918ec9}, !- Space Name
  Ground,                                 !- Outside Boundary Condition
  ,                                       !- Outside Boundary Condition Object
  NoSun,                                  !- Sun Exposure
  NoWind,                                 !- Wind Exposure
  ,                                       !- View Factor to Ground
  ,                                       !- Number of Vertices
  10, -5, 0,                              !- X,Y,Z Vertex 1 {m}
  10, 5, 0,                               !- X,Y,Z Vertex 2 {m}
  30, 5, 0,                               !- X,Y,Z Vertex 3 {m}
  30, -5, 0;                              !- X,Y,Z Vertex 4 {m}

OS:Surface,
  {b7cd686e-b6f2-4146-86a1-560d447157e4}, !- Handle
  Surface 14,                             !- Name
  Wall,                                   !- Surface Type
  ,                                       !- Construction Name
  {1742832c-83fa-46f1-a4be-445c2e918ec9}, !- Space Name
  Surface,                                !- Outside Boundary Condition
  {58d231c8-5007-4ba6-9997-df0064117f01}, !- Outside Boundary Condition Object
  NoSun,                                  !- Sun Exposure
  NoWind,                                 !- Wind Exposure
  ,                                       !- View Factor to Ground
  ,                                       !- Number of Vertices
  10, 5, 7,                               !- X,Y,Z Vertex 1 {m}
  10, 5, 0,                               !- X,Y,Z Vertex 2 {m}
  10, -5, 0,                              !- X,Y,Z Vertex 3 {m}
  10, -5, 7;                              !- X,Y,Z Vertex 4 {m}

OS:Surface,
  {5311f459-1167-4f10-bfc8-0c487320a4d1}, !- Handle
  Surface 15,                             !- Name
  Wall,                                   !- Surface Type
  ,                                       !- Construction Name
  {1742832c-83fa-46f1-a4be-445c2e918ec9}, !- Space Name
  Surface,                                !- Outside Boundary Condition
  {b47b24e0-06f5-4408-ab38-22b1a5ad595e}, !- Outside Boundary Condition Object
  NoSun,                                  !- Sun Exposure
  NoWind,                                 !- Wind Exposure
  ,                                       !- View Factor to Ground
  ,                                       !- Number of Vertices
  10, -5, 0,                              !- X,Y,Z Vertex 1 {m}
  30, -5, 0,                              !- X,Y,Z Vertex 2 {m}
  30, -5, 7,                              !- X,Y,Z Vertex 3 {m}
  10, -5, 7;                              !- X,Y,Z Vertex 4 {m}

OS:Surface,
  {ed823674-9605-4b2d-acb7-e8bcc06b2f2c}, !- Handle
  Surface 16,                             !- Name
  Wall,                                   !- Surface Type
  ,                                       !- Construction Name
  {1742832c-83fa-46f1-a4be-445c2e918ec9}, !- Space Name
  Outdoors,                               !- Outside Boundary Condition
  ,                                       !- Outside Boundary Condition Object
  SunExposed,                             !- Sun Exposure
  WindExposed,                            !- Wind Exposure
  ,                                       !- View Factor to Ground
  ,                                       !- Number of Vertices
  30, -5, 0,                              !- X,Y,Z Vertex 1 {m}
  30, 5, 0,                               !- X,Y,Z Vertex 2 {m}
  30, 5, 7,                               !- X,Y,Z Vertex 3 {m}
  30, -5, 7;                              !- X,Y,Z Vertex 4 {m}

OS:Surface,
  {b2a77342-43b1-4c62-9d83-ace199d91829}, !- Handle
  Surface 17,                             !- Name
  Wall,                                   !- Surface Type
  ,                                       !- Construction Name
  {1742832c-83fa-46f1-a4be-445c2e918ec9}, !- Space Name
  Surface,                                !- Outside Boundary Condition
  {c5bd9a90-7648-406c-a476-57e1ecb21616}, !- Outside Boundary Condition Object
  NoSun,                                  !- Sun Exposure
  NoWind,                                 !- Wind Exposure
  ,                                       !- View Factor to Ground
  ,                                       !- Number of Vertices
  30, 5, 0,                               !- X,Y,Z Vertex 1 {m}
  10, 5, 0,                               !- X,Y,Z Vertex 2 {m}
  10, 5, 7,                               !- X,Y,Z Vertex 3 {m}
  30, 5, 7;                               !- X,Y,Z Vertex 4 {m}

OS:Surface,
  {b64ed355-fbfd-40c3-bed0-b3af6a4d9364}, !- Handle
  Surface 18,                             !- Name
  RoofCeiling,                            !- Surface Type
  ,                                       !- Construction Name
  {1742832c-83fa-46f1-a4be-445c2e918ec9}, !- Space Name
  Outdoors,                               !- Outside Boundary Condition
  ,                                       !- Outside Boundary Condition Object
  SunExposed,                             !- Sun Exposure
  WindExposed,                            !- Wind Exposure
  ,                                       !- View Factor to Ground
  ,                                       !- Number of Vertices
  10, -5, 7,                              !- X,Y,Z Vertex 1 {m}
  30, -5, 7,                              !- X,Y,Z Vertex 2 {m}
  30, 5, 7,                               !- X,Y,Z Vertex 3 {m}
  10, 5, 7;                               !- X,Y,Z Vertex 4 {m}

OS:Space,
  {6a56a9f4-40a9-4f71-883a-432fd28854ef}, !- Handle
  Space_3_0,                              !- Name
  ,                                       !- Space Type Name
  ,                                       !- Default Construction Set Name
  ,                                       !- Default Schedule Set Name
  ,                                       !- Direction of Relative North {deg}
  ,                                       !- X Origin {m}
  ,                                       !- Y Origin {m}
  ,                                       !- Z Origin {m}
  {abdba1cc-9b54-4156-9b26-2899aec87e37}, !- Building Story Name
  {e0db391c-4f3f-47c9-82c0-9b0b6ed9b6b1}; !- Thermal Zone Name

OS:Surface,
  {ca68c7ed-77f3-4e8b-9c48-2664b6f56879}, !- Handle
  Surface 19,                             !- Name
  Floor,                                  !- Surface Type
  ,                                       !- Construction Name
  {6a56a9f4-40a9-4f71-883a-432fd28854ef}, !- Space Name
  Ground,                                 !- Outside Boundary Condition
  ,                                       !- Outside Boundary Condition Object
  NoSun,                                  !- Sun Exposure
  NoWind,                                 !- Wind Exposure
  ,                                       !- View Factor to Ground
  ,                                       !- Number of Vertices
  10, -15, 0,                             !- X,Y,Z Vertex 1 {m}
  10, -5, 0,                              !- X,Y,Z Vertex 2 {m}
  30, -5, 0,                              !- X,Y,Z Vertex 3 {m}
  30, -15, 0;                             !- X,Y,Z Vertex 4 {m}

OS:Surface,
  {3689f224-e34c-4eee-86c6-37de78db4ce4}, !- Handle
  Surface 20,                             !- Name
  Wall,                                   !- Surface Type
  ,                                       !- Construction Name
  {6a56a9f4-40a9-4f71-883a-432fd28854ef}, !- Space Name
  Surface,                                !- Outside Boundary Condition
  {e2a9f60f-0aa0-42c8-a52a-dd2d05ded10f}, !- Outside Boundary Condition Object
  NoSun,                                  !- Sun Exposure
  NoWind,                                 !- Wind Exposure
  ,                                       !- View Factor to Ground
  ,                                       !- Number of Vertices
  10, -5, 7,                              !- X,Y,Z Vertex 1 {m}
  10, -5, 0,                              !- X,Y,Z Vertex 2 {m}
  10, -14, 0,                             !- X,Y,Z Vertex 3 {m}
  10, -14, 7;                             !- X,Y,Z Vertex 4 {m}

OS:Surface,
  {da2bcc90-af9e-446a-a210-8d8a26c0f8c8}, !- Handle
  Surface 21,                             !- Name
  Wall,                                   !- Surface Type
  ,                                       !- Construction Name
  {6a56a9f4-40a9-4f71-883a-432fd28854ef}, !- Space Name
  Outdoors,                               !- Outside Boundary Condition
  ,                                       !- Outside Boundary Condition Object
  SunExposed,                             !- Sun Exposure
  WindExposed,                            !- Wind Exposure
  ,                                       !- View Factor to Ground
  ,                                       !- Number of Vertices
  10, -15, 0,                             !- X,Y,Z Vertex 1 {m}
  30, -15, 0,                             !- X,Y,Z Vertex 2 {m}
  30, -15, 7,                             !- X,Y,Z Vertex 3 {m}
  10, -15, 7;                             !- X,Y,Z Vertex 4 {m}

OS:Surface,
  {cc7d79da-fd0f-42c8-9173-de79654cbd6e}, !- Handle
  Surface 22,                             !- Name
  Wall,                                   !- Surface Type
  ,                                       !- Construction Name
  {6a56a9f4-40a9-4f71-883a-432fd28854ef}, !- Space Name
  Outdoors,                               !- Outside Boundary Condition
  ,                                       !- Outside Boundary Condition Object
  SunExposed,                             !- Sun Exposure
  WindExposed,                            !- Wind Exposure
  ,                                       !- View Factor to Ground
  ,                                       !- Number of Vertices
  30, -15, 0,                             !- X,Y,Z Vertex 1 {m}
  30, -5, 0,                              !- X,Y,Z Vertex 2 {m}
  30, -5, 7,                              !- X,Y,Z Vertex 3 {m}
  30, -15, 7;                             !- X,Y,Z Vertex 4 {m}

OS:Surface,
  {b47b24e0-06f5-4408-ab38-22b1a5ad595e}, !- Handle
  Surface 23,                             !- Name
  Wall,                                   !- Surface Type
  ,                                       !- Construction Name
  {6a56a9f4-40a9-4f71-883a-432fd28854ef}, !- Space Name
  Surface,                                !- Outside Boundary Condition
  {5311f459-1167-4f10-bfc8-0c487320a4d1}, !- Outside Boundary Condition Object
  NoSun,                                  !- Sun Exposure
  NoWind,                                 !- Wind Exposure
  ,                                       !- View Factor to Ground
  ,                                       !- Number of Vertices
  30, -5, 0,                              !- X,Y,Z Vertex 1 {m}
  10, -5, 0,                              !- X,Y,Z Vertex 2 {m}
  10, -5, 7,                              !- X,Y,Z Vertex 3 {m}
  30, -5, 7;                              !- X,Y,Z Vertex 4 {m}

OS:Surface,
  {b6618924-6a16-4cf2-abfe-01205ee6f85e}, !- Handle
  Surface 24,                             !- Name
  RoofCeiling,                            !- Surface Type
  ,                                       !- Construction Name
  {6a56a9f4-40a9-4f71-883a-432fd28854ef}, !- Space Name
  Outdoors,                               !- Outside Boundary Condition
  ,                                       !- Outside Boundary Condition Object
  SunExposed,                             !- Sun Exposure
  WindExposed,                            !- Wind Exposure
  ,                                       !- View Factor to Ground
  ,                                       !- Number of Vertices
  10, -15, 7,                             !- X,Y,Z Vertex 1 {m}
  30, -15, 7,                             !- X,Y,Z Vertex 2 {m}
  30, -5, 7,                              !- X,Y,Z Vertex 3 {m}
  10, -5, 7;                              !- X,Y,Z Vertex 4 {m}

OS:Space,
  {b90cf5ea-8f02-41f7-8598-ced2edda1ed3}, !- Handle
  Space_4_0,                              !- Name
  ,                                       !- Space Type Name
  ,                                       !- Default Construction Set Name
  ,                                       !- Default Schedule Set Name
  ,                                       !- Direction of Relative North {deg}
  ,                                       !- X Origin {m}
  ,                                       !- Y Origin {m}
  ,                                       !- Z Origin {m}
  {abdba1cc-9b54-4156-9b26-2899aec87e37}, !- Building Story Name
  {4c8c8eee-04ec-4624-a11d-449bb147400c}; !- Thermal Zone Name

OS:Surface,
  {2576fcd3-878a-4ec2-acc3-b9cc5dd50597}, !- Handle
  Surface 25,                             !- Name
  Floor,                                  !- Surface Type
  ,                                       !- Construction Name
  {b90cf5ea-8f02-41f7-8598-ced2edda1ed3}, !- Space Name
  Surface,                                !- Outside Boundary Condition
  {e5da7d05-1427-4edc-9f8f-ca1e30dc8301}, !- Outside Boundary Condition Object
  NoSun,                                  !- Sun Exposure
  NoWind,                                 !- Wind Exposure
  ,                                       !- View Factor to Ground
  ,                                       !- Number of Vertices
  10, 10, 7,                              !- X,Y,Z Vertex 1 {m}
  10, -10, 7,                             !- X,Y,Z Vertex 2 {m}
  -10, -10, 7,                            !- X,Y,Z Vertex 3 {m}
  -10, 10, 7;                             !- X,Y,Z Vertex 4 {m}

OS:Surface,
  {7935787d-fb2b-4f43-bb84-0a0988b61130}, !- Handle
  Surface 26,                             !- Name
  Wall,                                   !- Surface Type
  ,                                       !- Construction Name
  {b90cf5ea-8f02-41f7-8598-ced2edda1ed3}, !- Space Name
  Outdoors,                               !- Outside Boundary Condition
  ,                                       !- Outside Boundary Condition Object
  SunExposed,                             !- Sun Exposure
  WindExposed,                            !- Wind Exposure
  ,                                       !- View Factor to Ground