
OS:Version,
  {1aa3e701-018d-4204-a5a9-0e1752120f45}, !- Handle
  1.10.0;                                 !- Version Identifier

OS:Facility,
  {befcbcb6-b07e-4500-aaf2-289c31f025b8}; !- Handle

OS:Building,
  {7881920e-b8f1-43e7-89a3-5ec797fe657b}, !- Handle
  Building 1,                             !- Name
  ,                                       !- Building Sector Type
  ,                                       !- North Axis {deg}
  ,                                       !- Nominal Floor to Floor Height {m}
  ,                                       !- Space Type Name
  ,                                       !- Default Construction Set Name
  ;                                       !- Default Schedule Set Name

OS:BuildingStory,
  {f8005ce1-ee55-46d0-8af1-b8eae978cfae}, !- Handle
  Level 1,                                !- Name
  ,                                       !- Nominal Z Coordinate {m}
  ,                                       !- Nominal Floor to Floor Height {m}
  ,                                       !- Default Construction Set Name
  ,                                       !- Default Schedule Set Name
  ;                                       !- Group Rendering Name

OS:BuildingStory,
  {d1b1f01f-2729-4a94-b2b6-9a21c4e633bf}, !- Handle
  Level 2,                                !- Name
  ,                                       !- Nominal Z Coordinate {m}
  7,                                      !- Nominal Floor to Floor Height {m}
  ,                                       !- Default Construction Set Name
  ,                                       !- Default Schedule Set Name
  ;                                       !- Group Rendering Name

OS:BuildingStory,
  {7db228c2-f557-4681-8176-a338b879c2cf}, !- Handle
  Level 3,                                !- Name
  ,                                       !- Nominal Z Coordinate {m}
  14,                                     !- Nominal Floor to Floor Height {m}
  ,                                       !- Default Construction Set Name
  ,                                       !- Default Schedule Set Name
  ;                                       !- Group Rendering Name

OS:Space,
  {062451c0-b4e6-4109-a56d-640738a868eb}, !- Handle
  Space_0_0,                              !- Name
  ,                                       !- Space Type Name
  ,                                       !- Default Construction Set Name
  ,                                       !- Default Schedule Set Name
  ,                                       !- Direction of Relative North {deg}
  ,                                       !- X Origin {m}
  ,                                       !- Y Origin {m}
  ,                                       !- Z Origin {m}
  {f8005ce1-ee55-46d0-8af1-b8eae978cfae}, !- Building Story Name
  {f8d6cc8b-a253-4604-a385-f6f31ee9b6c4}; !- Thermal Zone Name

OS:Surface,
  {7387aa16-d049-4ea9-9676-80e645967051}, !- Handle
  Surface 1,                              !- Name
  Floor,                                  !- Surface Type
  ,                                       !- Construction Name
  {062451c0-b4e6-4109-a56d-640738a868eb}, !- Space Name
  Ground,                                 !- Outside Boundary Condition
  ,                                       !- Outside Boundary Condition Object
  NoSun,                                  !- Sun Exposure
  NoWind,                                 !- Wind Exposure
  ,                                       !- View Factor to Ground
  ,                                       !- Number of Vertices
  -10, -14, 0,                            !- X,Y,Z Vertex 1 {m}
  -10, 14, 0,                             !- X,Y,Z Vertex 2 {m}
  10, 14, 0,                              !- X,Y,Z Vertex 3 {m}
  10, -14, 0;                             !- X,Y,Z Vertex 4 {m}

OS:Surface,
  {d789df23-bdcb-4103-b811-c10e22827011}, !- Handle
  Surface 2,                              !- Name
  Wall,                                   !- Surface Type
  ,                                       !- Construction Name
  {062451c0-b4e6-4109-a56d-640738a868eb}, !- Space Name
  Outdoors,                               !- Outside Boundary Condition
  ,                                       !- Outside Boundary Condition Object
  SunExposed,                             !- Sun Exposure
  WindExposed,                            !- Wind Exposure
  ,                                       !- View Factor to Ground
  ,                                       !- Number of Vertices
  -10, -14, 0,                            !- X,Y,Z Vertex 1 {m}
  -10, -14, 7,                            !- X,Y,Z Vertex 2 {m}
  -10, 14, 7,                             !- X,Y,Z Vertex 3 {m}
  -10, 14, 0;                             !- X,Y,Z Vertex 4 {m}

OS:Surface,
  {7c6cd2e0-7a7b-4a4b-be3c-21d967a2fdf2}, !- Handle
  Surface 3,                              !- Name
  Wall,                                   !- Surface Type
  ,                                       !- Construction Name
  {062451c0-b4e6-4109-a56d-640738a868eb}, !- Space Name
  Outdoors,                               !- Outside Boundary Condition
  ,                                       !- Outside Boundary Condition Object
  SunExposed,                             !- Sun Exposure
  WindExposed,                            !- Wind Exposure
  ,                                       !- View Factor to Ground
  ,                                       !- Number of Vertices
  -10, -14, 0,                            !- X,Y,Z Vertex 1 {m}
  10, -14, 0,                             !- X,Y,Z Vertex 2 {m}
  10, -14, 7,                             !- X,Y,Z Vertex 3 {m}
  -10, -14, 7;                            !- X,Y,Z Vertex 4 {m}

OS:Surface,
  {960d483a-6498-4569-9aa3-e3aded8ef36a}, !- Handle
  Surface 4,                              !- Name
  Wall,                                   !- Surface Type
  ,                                       !- Construction Name
  {062451c0-b4e6-4109-a56d-640738a868eb}, !- Space Name
  Surface,                                !- Outside Boundary Condition
  {39bba85b-e301-4767-9230-34917b8f0dbd}, !- Outside Boundary Condition Object
  NoSun,                                  !- Sun Exposure
  NoWind,                                 !- Wind Exposure
  ,                                       !- View Factor to Ground
  ,                                       !- Number of Vertices
  10, -5, 7,                              !- X,Y,Z Vertex 1 {m}
  10, -5, 0,                              !- X,Y,Z Vertex 2 {m}
  10, 5, 0,                               !- X,Y,Z Vertex 3 {m}
  10, 5, 7;                               !- X,Y,Z Vertex 4 {m}

OS:Surface,
  {58d9b56b-e5c8-4d30-b239-d6dcf4f10add}, !- Handle
  Surface 5,                              !- Name
  Wall,                                   !- Surface Type
  ,                                       !- Construction Name
  {062451c0-b4e6-4109-a56d-640738a868eb}, !- Space Name
  Outdoors,                               !- Outside Boundary Condition
  ,                                       !- Outside Boundary Condition Object
  SunExposed,                             !- Sun Exposure
  WindExposed,                            !- Wind Exposure
  ,                                       !- View Factor to Ground
  ,                                       !- Number of Vertices
  10, 14, 0,                              !- X,Y,Z Vertex 1 {m}
  -10, 14, 0,                             !- X,Y,Z Vertex 2 {m}
  -10, 14, 7,                             !- X,Y,Z Vertex 3 {m}
  10, 14, 7;                              !- X,Y,Z Vertex 4 {m}

OS:Surface,
  {7c319245-4c77-4f94-9cce-241928429c7c}, !- Handle
  Surface 6,                              !- Name
  RoofCeiling,                            !- Surface Type
  ,                                       !- Construction Name
  {062451c0-b4e6-4109-a56d-640738a868eb}, !- Space Name
  Surface,                                !- Outside Boundary Condition
  {1fef6967-5c32-492e-b362-3ce0d29dc9ff}, !- Outside Boundary Condition Object
  NoSun,                                  !- Sun Exposure
  NoWind,                                 !- Wind Exposure
  ,                                       !- View Factor to Ground
  ,                                       !- Number of Vertices
  10, -10, 7,                             !- X,Y,Z Vertex 1 {m}
  10, 10, 7,                              !- X,Y,Z Vertex 2 {m}
  -10, 10, 7,                             !- X,Y,Z Vertex 3 {m}
  -10, -10, 7;                            !- X,Y,Z Vertex 4 {m}

OS:Space,
  {c4322672-8c4f-480d-a99e-abe2eaab492e}, !- Handle
  Space_2_0,                              !- Name
  ,                                       !- Space Type Name
  ,                                       !- Default Construction Set Name
  ,                                       !- Default Schedule Set Name
  ,                                       !- Direction of Relative North {deg}
  ,                                       !- X Origin {m}
  ,                                       !- Y Origin {m}
  ,                                       !- Z Origin {m}
  {f8005ce1-ee55-46d0-8af1-b8eae978cfae}, !- Building Story Name
  {c013553d-dd91-4075-9ef5-24fd079cafbe}; !- Thermal Zone Name

OS:Surface,
  {46ea74ce-78d8-44f9-b0ed-d8e0af75c1fb}, !- Handle
  Surface 7,                              !- Name
  Floor,                                  !- Surface Type
  ,                                       !- Construction Name
  {c4322672-8c4f-480d-a99e-abe2eaab492e}, !- Space Name
  Ground,                                 !- Outside Boundary Condition
  ,                                       !- Outside Boundary Condition Object
  NoSun,                                  !- Sun Exposure
  NoWind,                                 !- Wind Exposure
  ,                                       !- View Factor to Ground
  ,                                       !- Number of Vertices
  10, 5, 0,                               !- X,Y,Z Vertex 1 {m}
  10, 15, 0,                              !- X,Y,Z Vertex 2 {m}
  30, 15, 0,                              !- X,Y,Z Vertex 3 {m}
  30, 5, 0;                               !- X,Y,Z Vertex 4 {m}

OS:Surface,
  {659b4a06-6b38-453c-a785-2ebc1fca496a}, !- Handle
  Surface 8,                              !- Name
  Wall,                                   !- Surface Type
  ,                                       !- Construction Name
  {c4322672-8c4f-480d-a99e-abe2eaab492e}, !- Space Name
  Surface,                                !- Outside Boundary Condition
  {eb306a19-0efc-4fc5-b5e9-07bd4a607aa6}, !- Outside Boundary Condition Object
  NoSun,                                  !- Sun Exposure
  NoWind,                                 !- Wind Exposure
  ,                                       !- View Factor to Ground
  ,                                       !- Number of Vertices
  10, 14, 7,                              !- X,Y,Z Vertex 1 {m}
  10, 14, 0,                              !- X,Y,Z Vertex 2 {m}
  10, 5, 0,                               !- X,Y,Z Vertex 3 {m}
  10, 5, 7;                               !- X,Y,Z Vertex 4 {m}

OS:Surface,
  {8751a599-4a8b-4ce9-a3bc-3f9c5f22cf84}, !- Handle
  Surface 9,                              !- Name
  Wall,                                   !- Surface Type
  ,                                       !- Construction Name
  {c4322672-8c4f-480d-a99e-abe2eaab492e}, !- Space Name
  Surface,                                !- Outside Boundary Condition
  {6c3aded7-ccf7-4afa-ad55-6d834cedc735}, !- Outside Boundary Condition Object
  NoSun,                                  !- Sun Exposure
  NoWind,                                 !- Wind Exposure
  ,                                       !- View Factor to Ground
  ,                                       !- Number of Vertices
  10, 5, 0,                               !- X,Y,Z Vertex 1 {m}
  30, 5, 0,                               !- X,Y,Z Vertex 2 {m}
  30, 5, 7,                               !- X,Y,Z Vertex 3 {m}
  10, 5, 7;                               !- X,Y,Z Vertex 4 {m}

OS:Surface,
  {1d01469a-de5f-4614-afdf-7bdc23cf0787}, !- Handle
  Surface 10,                             !- Name
  Wall,                                   !- Surface Type
  ,                                       !- Construction Name
  {c4322672-8c4f-480d-a99e-abe2eaab492e}, !- Space Name
  Outdoors,                               !- Outside Boundary Condition
  ,                                       !- Outside Boundary Condition Object
  SunExposed,                             !- Sun Exposure
  WindExposed,                            !- Wind Exposure
  ,                                       !- View Factor to Ground
  ,                                       !- Number of Vertices
  30, 5, 0,                               !- X,Y,Z Vertex 1 {m}
  30, 15, 0,                              !- X,Y,Z Vertex 2 {m}
  30, 15, 7,                              !- X,Y,Z Vertex 3 {m}
  30, 5, 7;                               !- X,Y,Z Vertex 4 {m}

OS:Surface,
  {0bf1e4c5-32aa-43aa-bb21-9b91dbce0d6d}, !- Handle
  Surface 11,                             !- Name
  Wall,                                   !- Surface Type
  ,                                       !- Construction Name
  {c4322672-8c4f-480d-a99e-abe2eaab492e}, !- Space Name
  Outdoors,                               !- Outside Boundary Condition
  ,                                       !- Outside Boundary Condition Object
  SunExposed,                             !- Sun Exposure
  WindExposed,                            !- Wind Exposure
  ,                                       !- View Factor to Ground
  ,                                       !- Number of Vertices
  30, 15, 0,                              !- X,Y,Z Vertex 1 {m}
  10, 15, 0,                              !- X,Y,Z Vertex 2 {m}
  10, 15, 7,                              !- X,Y,Z Vertex 3 {m}
  30, 15, 7;                              !- X,Y,Z Vertex 4 {m}

OS:Surface,
  {0d0364ba-30aa-464b-a562-882423748e04}, !- Handle
  Surface 12,                             !- Name
  RoofCeiling,                            !- Surface Type
  ,                                       !- Construction Name
  {c4322672-8c4f-480d-a99e-abe2eaab492e}, !- Space Name
  Outdoors,                               !- Outside Boundary Condition
  ,                                       !- Outside Boundary Condition Object
  SunExposed,                             !- Sun Exposure
  WindExposed,                            !- Wind Exposure
  ,                                       !- View Factor to Ground
  ,                                       !- Number of Vertices
  10, 5, 7,                               !- X,Y,Z Vertex 1 {m}
  30, 5, 7,                               !- X,Y,Z Vertex 2 {m}
  30, 15, 7,                              !- X,Y,Z Vertex 3 {m}
  10, 15, 7;                              !- X,Y,Z Vertex 4 {m}

OS:Space,
  {1d840ed0-c97d-4082-8d40-ef9fec767807}, !- Handle
  Space_1_0,                              !- Name
  ,                                       !- Space Type Name
  ,                                       !- Default Construction Set Name
  ,                                       !- Default Schedule Set Name
  ,                                       !- Direction of Relative North {deg}
  ,                                       !- X Origin {m}
  ,                                       !- Y Origin {m}
  ,                                       !- Z Origin {m}
  {f8005ce1-ee55-46d0-8af1-b8eae978cfae}, !- Building Story Name
  {7bdead19-f10f-4932-b8a7-f34381c51d6c}; !- Thermal Zone Name

OS:Surface,
  {5efab99d-0b99-48e2-98e1-ebac5a953987}, !- Handle
  Surface 13,                             !- Name
  Floor,                                  !- Surface Type
  ,                                       !- Construction Name
  {1d840ed0-c97d-4082-8d40-ef9fec767807}, !- Space Name
  Ground,                                 !- Outside Boundary Condition
  ,                                       !- Outside Boundary Condition Object
  NoSun,                                  !- Sun Exposure
  NoWind,                                 !- Wind Exposure
  ,                                       !- View Factor to Ground
  ,                                       !- Number of Vertices
  10, -5, 0,                              !- X,Y,Z Vertex 1 {m}
  10, 5, 0,                               !- X,Y,Z Vertex 2 {m}
  30, 5, 0,                               !- X,Y,Z Vertex 3 {m}
  30, -5, 0;                              !- X,Y,Z Vertex 4 {m}

OS:Surface,
  {39bba85b-e301-4767-9230-34917b8f0dbd}, !- Handle
  Surface 14,                             !- Name
  Wall,                                   !- Surface Type
  ,                                       !- Construction Name
  {1d840ed0-c97d-4082-8d40-ef9fec767807}, !- Space Name
  Surface,                                !- Outside Boundary Condition
  {960d483a-6498-4569-9aa3-e3aded8ef36a}, !- Outside Boundary Condition Object
  NoSun,                                  !- Sun Exposure
  NoWind,                                 !- Wind Exposure
  ,                                       !- View Factor to Ground
  ,                                       !- Number of Vertices
  10, 5, 7,                               !- X,Y,Z Vertex 1 {m}
  10, 5, 0,                               !- X,Y,Z Vertex 2 {m}
  10, -5, 0,                              !- X,Y,Z Vertex 3 {m}
  10, -5, 7;                              !- X,Y,Z Vertex 4 {m}

OS:Surface,
  {f0556e57-4721-4f09-a6bd-13f8a1d50670}, !- Handle
  Surface 15,                             !- Name
  Wall,                                   !- Surface Type
  ,                                       !- Construction Name
  {1d840ed0-c97d-4082-8d40-ef9fec767807}, !- Space Name
  Surface,                                !- Outside Boundary Condition
  {5f2cb945-e156-4ba7-9fc3-11e664e68112}, !- Outside Boundary Condition Object
  NoSun,                                  !- Sun Exposure
  NoWind,                                 !- Wind Exposure
  ,                                       !- View Factor to Ground
  ,                                       !- Number of Vertices
  10, -5, 0,                              !- X,Y,Z Vertex 1 {m}
  30, -5, 0,                              !- X,Y,Z Vertex 2 {m}
  30, -5, 7,                              !- X,Y,Z Vertex 3 {m}
  10, -5, 7;                              !- X,Y,Z Vertex 4 {m}

OS:Surface,
  {d41887b8-3a87-4ea3-a998-62481cc16249}, !- Handle
  Surface 16,                             !- Name
  Wall,                                   !- Surface Type
  ,                                       !- Construction Name
  {1d840ed0-c97d-4082-8d40-ef9fec767807}, !- Space Name
  Outdoors,                               !- Outside Boundary Condition
  ,                                       !- Outside Boundary Condition Object
  SunExposed,                             !- Sun Exposure
  WindExposed,                            !- Wind Exposure
  ,                                       !- View Factor to Ground
  ,                                       !- Number of Vertices
  30, -5, 0,                              !- X,Y,Z Vertex 1 {m}
  30, 5, 0,                               !- X,Y,Z Vertex 2 {m}
  30, 5, 7,                               !- X,Y,Z Vertex 3 {m}
  30, -5, 7;                              !- X,Y,Z Vertex 4 {m}

OS:Surface,
  {6c3aded7-ccf7-4afa-ad55-6d834cedc735}, !- Handle
  Surface 17,                             !- Name
  Wall,                                   !- Surface Type
  ,                                       !- Construction Name
  {1d840ed0-c97d-4082-8d40-ef9fec767807}, !- Space Name
  Surface,                                !- Outside Boundary Condition
  {8751a599-4a8b-4ce9-a3bc-3f9c5f22cf84}, !- Outside Boundary Condition Object
  NoSun,                                  !- Sun Exposure
  NoWind,                                 !- Wind Exposure
  ,                                       !- View Factor to Ground
  ,                                       !- Number of Vertices
  30, 5, 0,                               !- X,Y,Z Vertex 1 {m}
  10, 5, 0,                               !- X,Y,Z Vertex 2 {m}
  10, 5, 7,                               !- X,Y,Z Vertex 3 {m}
  30, 5, 7;                               !- X,Y,Z Vertex 4 {m}

OS:Surface,
  {992b876e-f2c2-4f35-a7e5-683f112a2095}, !- Handle
  Surface 18,                             !- Name
  RoofCeiling,                            !- Surface Type
  ,                                       !- Construction Name
  {1d840ed0-c97d-4082-8d40-ef9fec767807}, !- Space Name
  Outdoors,                               !- Outside Boundary Condition
  ,                                       !- Outside Boundary Condition Object
  SunExposed,                             !- Sun Exposure
  WindExposed,                            !- Wind Exposure
  ,                                       !- View Factor to Ground
  ,                                       !- Number of Vertices
  10, -5, 7,                              !- X,Y,Z Vertex 1 {m}
  30, -5, 7,                              !- X,Y,Z Vertex 2 {m}
  30, 5, 7,                               !- X,Y,Z Vertex 3 {m}
  10, 5, 7;                               !- X,Y,Z Vertex 4 {m}

OS:Space,
  {0cbe4f69-7da4-472c-9110-1afc00fae52d}, !- Handle
  Space_3_0,                              !- Name
  ,                                       !- Space Type Name
  ,                                       !- Default Construction Set Name
  ,                                       !- Default Schedule Set Name
  ,                                       !- Direction of Relative North {deg}
  ,                                       !- X Origin {m}
  ,                                       !- Y Origin {m}
  ,                                       !- Z Origin {m}
  {f8005ce1-ee55-46d0-8af1-b8eae978cfae}, !- Building Story Name
  {37799f32-994a-4c5d-b02e-03b3dbbf0a84}; !- Thermal Zone Name

OS:Surface,
  {b5a90554-66d2-438a-ba35-4f08f4562d4f}, !- Handle
  Surface 19,                             !- Name
  Floor,                                  !- Surface Type
  ,                                       !- Construction Name
  {0cbe4f69-7da4-472c-9110-1afc00fae52d}, !- Space Name
  Ground,                                 !- Outside Boundary Condition
  ,                                       !- Outside Boundary Condition Object
  NoSun,                                  !- Sun Exposure
  NoWind,                                 !- Wind Exposure
  ,                                       !- View Factor to Ground
  ,                                       !- Number of Vertices
  10, -15, 0,                             !- X,Y,Z Vertex 1 {m}
  10, -5, 0,                              !- X,Y,Z Vertex 2 {m}
  30, -5, 0,                              !- X,Y,Z Vertex 3 {m}
  30, -15, 0;                             !- X,Y,Z Vertex 4 {m}

OS:Surface,
  {ca2f4891-85cb-46ca-b48f-34997d607757}, !- Handle
  Surface 20,                             !- Name
  Wall,                                   !- Surface Type
  ,                                       !- Construction Name
  {0cbe4f69-7da4-472c-9110-1afc00fae52d}, !- Space Name
  Surface,                                !- Outside Boundary Condition
  {f22a00e0-35b7-4bdf-9732-68f402955cf8}, !- Outside Boundary Condition Object
  NoSun,                                  !- Sun Exposure
  NoWind,                                 !- Wind Exposure
  ,                                       !- View Factor to Ground
  ,                                       !- Number of Vertices
  10, -5, 7,                              !- X,Y,Z Vertex 1 {m}
  10, -5, 0,                              !- X,Y,Z Vertex 2 {m}
  10, -14, 0,                             !- X,Y,Z Vertex 3 {m}
  10, -14, 7;                             !- X,Y,Z Vertex 4 {m}

OS:Surface,
  {9f69709c-4239-4f80-9988-3d7364ef35f3}, !- Handle
  Surface 21,                             !- Name
  Wall,                                   !- Surface Type
  ,                                       !- Construction Name
  {0cbe4f69-7da4-472c-9110-1afc00fae52d}, !- Space Name
  Outdoors,                               !- Outside Boundary Condition
  ,                                       !- Outside Boundary Condition Object
  SunExposed,                             !- Sun Exposure
  WindExposed,                            !- Wind Exposure
  ,                                       !- View Factor to Ground
  ,                                       !- Number of Vertices
  10, -15, 0,                             !- X,Y,Z Vertex 1 {m}
  30, -15, 0,                             !- X,Y,Z Vertex 2 {m}
  30, -15, 7,                             !- X,Y,Z Vertex 3 {m}
  10, -15, 7;                             !- X,Y,Z Vertex 4 {m}

OS:Surface,
  {3eb108b8-3f23-4ee9-8bcb-6d7ea28975be}, !- Handle
  Surface 22,                             !- Name
  Wall,                                   !- Surface Type
  ,                                       !- Construction Name
  {0cbe4f69-7da4-472c-9110-1afc00fae52d}, !- Space Name
  Outdoors,                               !- Outside Boundary Condition
  ,                                       !- Outside Boundary Condition Object
  SunExposed,                             !- Sun Exposure
  WindExposed,                            !- Wind Exposure
  ,                                       !- View Factor to Ground
  ,                                       !- Number of Vertices
  30, -15, 0,                             !- X,Y,Z Vertex 1 {m}
  30, -5, 0,                              !- X,Y,Z Vertex 2 {m}
  30, -5, 7,                              !- X,Y,Z Vertex 3 {m}
  30, -15, 7;                             !- X,Y,Z Vertex 4 {m}

OS:Surface,
  {5f2cb945-e156-4ba7-9fc3-11e664e68112}, !- Handle
  Surface 23,                             !- Name
  Wall,                                   !- Surface Type
  ,                                       !- Construction Name
  {0cbe4f69-7da4-472c-9110-1afc00fae52d}, !- Space Name
  Surface,                                !- Outside Boundary Condition
  {f0556e57-4721-4f09-a6bd-13f8a1d50670}, !- Outside Boundary Condition Object
  NoSun,                                  !- Sun Exposure
  NoWind,                                 !- Wind Exposure
  ,                                       !- View Factor to Ground
  ,                                       !- Number of Vertices
  30, -5, 0,                              !- X,Y,Z Vertex 1 {m}
  10, -5, 0,                              !- X,Y,Z Vertex 2 {m}
  10, -5, 7,                              !- X,Y,Z Vertex 3 {m}
  30, -5, 7;                              !- X,Y,Z Vertex 4 {m}

OS:Surface,
  {ff361781-ffdf-4b1d-89df-1edfcc0f0bad}, !- Handle
  Surface 24,                             !- Name
  RoofCeiling,                            !- Surface Type
  ,                                       !- Construction Name
  {0cbe4f69-7da4-472c-9110-1afc00fae52d}, !- Space Name
  Outdoors,                               !- Outside Boundary Condition
  ,                                       !- Outside Boundary Condition Object
  SunExposed,                             !- Sun Exposure
  WindExposed,                            !- Wind Exposure
  ,                                       !- View Factor to Ground
  ,                                       !- Number of Vertices
  10, -15, 7,                             !- X,Y,Z Vertex 1 {m}
  30, -15, 7,                             !- X,Y,Z Vertex 2 {m}
  30, -5, 7,                              !- X,Y,Z Vertex 3 {m}
  10, -5, 7;                              !- X,Y,Z Vertex 4 {m}

OS:Space,
  {ff56bc35-a57d-4dd3-b802-8df6deb6040a}, !- Handle
  Space_4_0,                              !- Name
  ,                                       !- Space Type Name
  ,                                       !- Default Construction Set Name
  ,                                       !- Default Schedule Set Name
  ,                                       !- Direction of Relative North {deg}
  ,                                       !- X Origin {m}
  ,                                       !- Y Origin {m}
  ,                                       !- Z Origin {m}
  {f8005ce1-ee55-46d0-8af1-b8eae978cfae}, !- Building Story Name
  {4a8e6973-eab9-442e-b9bc-4290ebe704cf}; !- Thermal Zone Name

OS:Surface,
  {1fef6967-5c32-492e-b362-3ce0d29dc9ff}, !- Handle
  Surface 25,                             !- Name
  Floor,                                  !- Surface Type
  ,                                       !- Construction Name
  {ff56bc35-a57d-4dd3-b802-8df6deb6040a}, !- Space Name
  Surface,                                !- Outside Boundary Condition
  {7c319245-4c77-4f94-9cce-241928429c7c}, !- Outside Boundary Condition Object
  NoSun,                                  !- Sun Exposure
  NoWind,                                 !- Wind Exposure
  ,                                       !- View Factor to Ground
  ,                                       !- Number of Vertices
  10, 10, 7,                              !- X,Y,Z Vertex 1 {m}
  10, -10, 7,                             !- X,Y,Z Vertex 2 {m}
  -10, -10, 7,                            !- X,Y,Z Vertex 3 {m}
  -10, 10, 7;                             !- X,Y,Z Vertex 4 {m}

OS:Surface,
  {dd2f816d-752c-4bb0-8b20-505bed7018fc}, !- Handle
  Surface 26,                             !- Name
  Wall,                                   !- Surface Type
  ,                                       !- Construction Name
  {ff56bc35-a57d-4dd3-b802-8df6deb6040a}, !- Space Name
  Outdoors,                               !- Outside Boundary Condition
  ,                                       !- Outside Boundary Condition Object
  SunExposed,                             !- Sun Exposure
  WindExposed,                            !- Wind Exposure
  ,                                       !- View Factor to Ground