
OS:Version,
  {7fad8588-145b-4e66-ae32-fa6cd3416851}, !- Handle
  1.12.2;                                 !- Version Identifier

OS:Facility,
  {a4d50e40-4186-467e-be87-919df80f9afb}; !- Handle

OS:Building,
  {10b2ea63-5645-4f93-96a3-4e764ae5236c}, !- Handle
  Building 1,                             !- Name
  ,                                       !- Building Sector Type
  ,                                       !- North Axis {deg}
  ,                                       !- Nominal Floor to Floor Height {m}
  ,                                       !- Space Type Name
  ,                                       !- Default Construction Set Name
  ;                                       !- Default Schedule Set Name

OS:BuildingStory,
  {ecd91745-a9f1-48c4-9c2b-5e82ab36fb5e}, !- Handle
  Level 1,                                !- Name
  ,                                       !- Nominal Z Coordinate {m}
  ,                                       !- Nominal Floor to Floor Height {m}
  ,                                       !- Default Construction Set Name
  ,                                       !- Default Schedule Set Name
  ;                                       !- Group Rendering Name

OS:BuildingStory,
  {fcdfaa2e-c638-428c-b996-c49a5e3e078a}, !- Handle
  Level 2,                                !- Name
  ,                                       !- Nominal Z Coordinate {m}
  3.048,                                  !- Nominal Floor to Floor Height {m}
  ,                                       !- Default Construction Set Name
  ,                                       !- Default Schedule Set Name
  ;                                       !- Group Rendering Name

OS:BuildingStory,
  {8dcd6579-3d26-4f0f-b20b-6e5077e423c1}, !- Handle
  Roof Level,                             !- Name
  ,                                       !- Nominal Z Coordinate {m}
  9.144,                                  !- Nominal Floor to Floor Height {m}
  ,                                       !- Default Construction Set Name
  ,                                       !- Default Schedule Set Name
  ;                                       !- Group Rendering Name

OS:Space,
  {3fddeef7-22e3-4118-b7ee-48e6d5272ab8}, !- Handle
  sp-1-Occupied_Auditorium,               !- Name
  ,                                       !- Space Type Name
  ,                                       !- Default Construction Set Name
  ,                                       !- Default Schedule Set Name
  ,                                       !- Direction of Relative North {deg}
  ,                                       !- X Origin {m}
  ,                                       !- Y Origin {m}
  ,                                       !- Z Origin {m}
  {ecd91745-a9f1-48c4-9c2b-5e82ab36fb5e}, !- Building Story Name
  {daefa251-8d0b-43a0-be6a-ea60ddf98971}; !- Thermal Zone Name

OS:Surface,
  {bba7c3a9-7a24-4f77-9755-772fbf5610cb}, !- Handle
  Surface 1,                              !- Name
  Wall,                                   !- Surface Type
  ,                                       !- Construction Name
  {3fddeef7-22e3-4118-b7ee-48e6d5272ab8}, !- Space Name
  Outdoors,                               !- Outside Boundary Condition
  ,                                       !- Outside Boundary Condition Object
  SunExposed,                             !- Sun Exposure
  WindExposed,                            !- Wind Exposure
  ,                                       !- View Factor to Ground
  ,                                       !- Number of Vertices
  0, 0, -3.048,                           !- X,Y,Z Vertex 1 {m}
  0, 18.288, -3.048,                      !- X,Y,Z Vertex 2 {m}
  30.48, 18.288, 0,                       !- X,Y,Z Vertex 3 {m}
  30.48, 0, 0;                            !- X,Y,Z Vertex 4 {m}

OS:Surface,
  {77805288-454e-4cf9-b8cb-7e1b91ee49fd}, !- Handle
  Surface 2,                              !- Name
  Wall,                                   !- Surface Type
  ,                                       !- Construction Name
  {3fddeef7-22e3-4118-b7ee-48e6d5272ab8}, !- Space Name
  Ground,                                 !- Outside Boundary Condition
  ,                                       !- Outside Boundary Condition Object
  NoSun,                                  !- Sun Exposure
  NoWind,                                 !- Wind Exposure
  ,                                       !- View Factor to Ground
  ,                                       !- Number of Vertices
  0, 0, -3.048,                           !- X,Y,Z Vertex 1 {m}
  0, 0, 0,                                !- X,Y,Z Vertex 2 {m}
  0, 18.288, 0,                           !- X,Y,Z Vertex 3 {m}
  0, 18.288, -3.048;                      !- X,Y,Z Vertex 4 {m}

OS:Surface,
  {a60e9da6-85bd-409a-978c-f0d196af7bfc}, !- Handle
  Surface 3,                              !- Name
  Wall,                                   !- Surface Type
  ,                                       !- Construction Name
  {3fddeef7-22e3-4118-b7ee-48e6d5272ab8}, !- Space Name
  Outdoors,                               !- Outside Boundary Condition
  ,                                       !- Outside Boundary Condition Object
  SunExposed,                             !- Sun Exposure
  WindExposed,                            !- Wind Exposure
  ,                                       !- View Factor to Ground
  ,                                       !- Number of Vertices
  0, 0, 0,                                !- X,Y,Z Vertex 1 {m}
  0, 0, 3.048,                            !- X,Y,Z Vertex 2 {m}
  0, 18.288, 3.048,                       !- X,Y,Z Vertex 3 {m}
  0, 18.288, 0;                           !- X,Y,Z Vertex 4 {m}

OS:Surface,
  {ad616185-9420-4cf5-aef6-8dad7a1ebf07}, !- Handle
  Surface 4,                              !- Name
  Wall,                                   !- Surface Type
  ,                                       !- Construction Name
  {3fddeef7-22e3-4118-b7ee-48e6d5272ab8}, !- Space Name
  Ground,                                 !- Outside Boundary Condition
  ,                                       !- Outside Boundary Condition Object
  NoSun,                                  !- Sun Exposure
  NoWind,                                 !- Wind Exposure
  ,                                       !- View Factor to Ground
  ,                                       !- Number of Vertices
  0, 0, 0,                                !- X,Y,Z Vertex 1 {m}
  30.48, 0, 0,                            !- X,Y,Z Vertex 2 {m}
  30.48, 0, 3.048,                        !- X,Y,Z Vertex 3 {m}
  0, 0, 3.048;                            !- X,Y,Z Vertex 4 {m}

OS:Surface,
  {90df802e-508f-4ea3-ac98-651ffa9eb807}, !- Handle
  Surface 5,                              !- Name
  Wall,                                   !- Surface Type
  ,                                       !- Construction Name
  {3fddeef7-22e3-4118-b7ee-48e6d5272ab8}, !- Space Name
  Outdoors,                               !- Outside Boundary Condition
  ,                                       !- Outside Boundary Condition Object
  SunExposed,                             !- Sun Exposure
  WindExposed,                            !- Wind Exposure
  ,                                       !- View Factor to Ground
  ,                                       !- Number of Vertices
  0, 0, -3.048,                           !- X,Y,Z Vertex 1 {m}
  30.48, 0, 0,                            !- X,Y,Z Vertex 2 {m}
  0, 0, 0;                                !- X,Y,Z Vertex 3 {m}

OS:Surface,
  {ca0a6205-ad63-4bef-853c-3d9fa5079901}, !- Handle
  Surface 6,                              !- Name
  Wall,                                   !- Surface Type
  ,                                       !- Construction Name
  {3fddeef7-22e3-4118-b7ee-48e6d5272ab8}, !- Space Name
  Outdoors,                               !- Outside Boundary Condition
  ,                                       !- Outside Boundary Condition Object
  SunExposed,                             !- Sun Exposure
  WindExposed,                            !- Wind Exposure
  ,                                       !- View Factor to Ground
  ,                                       !- Number of Vertices
  30.48, 0, 0,                            !- X,Y,Z Vertex 1 {m}
  30.48, 18.288, 0,                       !- X,Y,Z Vertex 2 {m}
  30.48, 18.288, 3.048,                   !- X,Y,Z Vertex 3 {m}
  30.48, 0, 3.048;                        !- X,Y,Z Vertex 4 {m}

OS:Surface,
  {cfcb6303-db8f-40e3-ab37-d5ec5d1029cc}, !- Handle
  Surface 7,                              !- Name
  Wall,                                   !- Surface Type
  ,                                       !- Construction Name
  {3fddeef7-22e3-4118-b7ee-48e6d5272ab8}, !- Space Name
  Outdoors,                               !- Outside Boundary Condition
  ,                                       !- Outside Boundary Condition Object
  SunExposed,                             !- Sun Exposure
  WindExposed,                            !- Wind Exposure
  ,                                       !- View Factor to Ground
  ,                                       !- Number of Vertices
  30.48, 18.288, 0,                       !- X,Y,Z Vertex 1 {m}
  0, 18.288, 0,                           !- X,Y,Z Vertex 2 {m}
  0, 18.288, 3.048,                       !- X,Y,Z Vertex 3 {m}
  30.48, 18.288, 3.048;                   !- X,Y,Z Vertex 4 {m}

OS:Surface,
  {298dbf35-29af-4723-a3ff-097f39a3de66}, !- Handle
  Surface 8,                              !- Name
  Wall,                                   !- Surface Type
  ,                                       !- Construction Name
  {3fddeef7-22e3-4118-b7ee-48e6d5272ab8}, !- Space Name
  Ground,                                 !- Outside Boundary Condition
  ,                                       !- Outside Boundary Condition Object
  NoSun,                                  !- Sun Exposure
  NoWind,                                 !- Wind Exposure
  ,                                       !- View Factor to Ground
  ,                                       !- Number of Vertices
  30.48, 18.288, 0,                       !- X,Y,Z Vertex 1 {m}
  0, 18.288, -3.048,                      !- X,Y,Z Vertex 2 {m}
  0, 18.288, 0;                           !- X,Y,Z Vertex 3 {m}

OS:Surface,
  {56969cf5-064d-4473-bcd3-de6477c9953d}, !- Handle
  Surface 9,                              !- Name
  RoofCeiling,                            !- Surface Type
  ,                                       !- Construction Name
  {3fddeef7-22e3-4118-b7ee-48e6d5272ab8}, !- Space Name
  Surface,                                !- Outside Boundary Condition
  {9d8de81c-33d2-47d9-825a-11aa4f1141ce}, !- Outside Boundary Condition Object
  NoSun,                                  !- Sun Exposure
  NoWind,                                 !- Wind Exposure
  ,                                       !- View Factor to Ground
  ,                                       !- Number of Vertices
  0, 0, 3.048,                            !- X,Y,Z Vertex 1 {m}
  30.48, 0, 3.048,                        !- X,Y,Z Vertex 2 {m}
  30.48, 18.288, 3.048,                   !- X,Y,Z Vertex 3 {m}
  0, 18.288, 3.048;                       !- X,Y,Z Vertex 4 {m}

OS:Space,
  {cd61e88f-8161-42c5-8533-350533d322ff}, !- Handle
  sp-2-Unoccupied_Auditorium,             !- Name
  ,                                       !- Space Type Name
  ,                                       !- Default Construction Set Name
  ,                                       !- Default Schedule Set Name
  ,                                       !- Direction of Relative North {deg}
  ,                                       !- X Origin {m}
  ,                                       !- Y Origin {m}
  ,                                       !- Z Origin {m}
  {fcdfaa2e-c638-428c-b996-c49a5e3e078a}, !- Building Story Name
  {bcd0da03-2759-455c-ae0d-6d3ebd264174}; !- Thermal Zone Name

OS:Surface,
  {9d8de81c-33d2-47d9-825a-11aa4f1141ce}, !- Handle
  Surface 10,                             !- Name
  Floor,                                  !- Surface Type
  ,                                       !- Construction Name
  {cd61e88f-8161-42c5-8533-350533d322ff}, !- Space Name
  Surface,                                !- Outside Boundary Condition
  {56969cf5-064d-4473-bcd3-de6477c9953d}, !- Outside Boundary Condition Object
  NoSun,                                  !- Sun Exposure
  NoWind,                                 !- Wind Exposure
  ,                                       !- View Factor to Ground
  ,                                       !- Number of Vertices
  0, 0, 3.048,                            !- X,Y,Z Vertex 1 {m}
  0, 18.288, 3.048,                       !- X,Y,Z Vertex 2 {m}
  30.48, 18.288, 3.048,                   !- X,Y,Z Vertex 3 {m}
  30.48, 0, 3.048;                        !- X,Y,Z Vertex 4 {m}

OS:Surface,
  {ce50e15f-be05-4905-8b5c-0256051b5d3e}, !- Handle
  Surface 11,                             !- Name
  Wall,                                   !- Surface Type
  ,                                       !- Construction Name
  {cd61e88f-8161-42c5-8533-350533d322ff}, !- Space Name
  Outdoors,                               !- Outside Boundary Condition
  ,                                       !- Outside Boundary Condition Object
  SunExposed,                             !- Sun Exposure
  WindExposed,                            !- Wind Exposure
  ,                                       !- View Factor to Ground
  ,                                       !- Number of Vertices
  0, 0, 3.048,                            !- X,Y,Z Vertex 1 {m}
  0, 0, 9.144,                            !- X,Y,Z Vertex 2 {m}
  0, 18.288, 9.144,                       !- X,Y,Z Vertex 3 {m}
  0, 18.288, 3.048;                       !- X,Y,Z Vertex 4 {m}

OS:Surface,
  {33236e97-e8d6-4593-859e-b5c323f8ebf4}, !- Handle
  Surface 12,                             !- Name
  Wall,                                   !- Surface Type
  ,                                       !- Construction Name
  {cd61e88f-8161-42c5-8533-350533d322ff}, !- Space Name
  Outdoors,                               !- Outside Boundary Condition
  ,                                       !- Outside Boundary Condition Object
  SunExposed,                             !- Sun Exposure
  WindExposed,                            !- Wind Exposure
  ,                                       !- View Factor to Ground
  ,                                       !- Number of Vertices
  0, 0, 3.048,                            !- X,Y,Z Vertex 1 {m}
  30.48, 0, 3.048,                        !- X,Y,Z Vertex 2 {m}
  30.48, 0, 9.144,                        !- X,Y,Z Vertex 3 {m}
  0, 0, 9.144;                            !- X,Y,Z Vertex 4 {m}

OS:Surface,
  {4f572409-0634-4870-bb01-b3e082dc7be6}, !- Handle
  Surface 13,                             !- Name
  Wall,                                   !- Surface Type
  ,                                       !- Construction Name
  {cd61e88f-8161-42c5-8533-350533d322ff}, !- Space Name
  Outdoors,                               !- Outside Boundary Condition
  ,                                       !- Outside Boundary Condition Object
  SunExposed,                             !- Sun Exposure
  WindExposed,                            !- Wind Exposure
  ,                                       !- View Factor to Ground
  ,                                       !- Number of Vertices
  30.48, 0, 3.048,                        !- X,Y,Z Vertex 1 {m}
  30.48, 18.288, 3.048,                   !- X,Y,Z Vertex 2 {m}
  30.48, 18.288, 9.144,                   !- X,Y,Z Vertex 3 {m}
  30.48, 0, 9.144;                        !- X,Y,Z Vertex 4 {m}

OS:Surface,
  {55d73fee-16c0-46d8-9c0f-2fba19dfae5f}, !- Handle
  Surface 14,                             !- Name
  Wall,                                   !- Surface Type
  ,                                       !- Construction Name
  {3fddeef7-22e3-4118-b7ee-48e6d5272ab8}, !- Space Name
  Outdoors,                               !- Outside Boundary Condition
  ,                                       !- Outside Boundary Condition Object
  SunExposed,                             !- Sun Exposure
  WindExposed,                            !- Wind Exposure
  ,                                       !- View Factor to Ground
  ,                                       !- Number of Vertices
  30.48, 18.288, 3.048,                   !- X,Y,Z Vertex 1 {m}
  0, 18.288, 3.048,                       !- X,Y,Z Vertex 2 {m}
  0, 18.288, 9.144,                       !- X,Y,Z Vertex 3 {m}
  30.48, 18.288, 9.144;                   !- X,Y,Z Vertex 4 {m}

OS:Surface,
  {0400a01d-eb92-4fae-997e-6c157077cdd2}, !- Handle
  Surface 15,                             !- Name
  RoofCeiling,                            !- Surface Type
  ,                                       !- Construction Name
  {cd61e88f-8161-42c5-8533-350533d322ff}, !- Space Name
  Surface,                                !- Outside Boundary Condition
  {3fd74d09-a421-43b1-af0b-c3b846045911}, !- Outside Boundary Condition Object
  NoSun,                                  !- Sun Exposure
  NoWind,                                 !- Wind Exposure
  ,                                       !- View Factor to Ground
  ,                                       !- Number of Vertices
  0, 0, 9.144,                            !- X,Y,Z Vertex 1 {m}
  30.48, 0, 9.144,                        !- X,Y,Z Vertex 2 {m}
  30.48, 18.288, 9.144,                   !- X,Y,Z Vertex 3 {m}
  0, 18.288, 9.144;                       !- X,Y,Z Vertex 4 {m}

OS:Space,
  {90a773c0-b669-4466-9c74-f19e88aad54e}, !- Handle
  sp-3-Roof_Void,                         !- Name
  ,                                       !- Space Type Name
  ,                                       !- Default Construction Set Name
  ,                                       !- Default Schedule Set Name
  ,                                       !- Direction of Relative North {deg}
  ,                                       !- X Origin {m}
  ,                                       !- Y Origin {m}
  ,                                       !- Z Origin {m}
  {fcdfaa2e-c638-428c-b996-c49a5e3e078a}, !- Building Story Name
  {e246ef07-2a69-469f-b884-097a80c4e7fd}; !- Thermal Zone Name

OS:Surface,
  {3fd74d09-a421-43b1-af0b-c3b846045911}, !- Handle
  Surface 16,                             !- Name
  Floor,                                  !- Surface Type
  ,                                       !- Construction Name
  {90a773c0-b669-4466-9c74-f19e88aad54e}, !- Space Name
  Surface,                                !- Outside Boundary Condition
  {0400a01d-eb92-4fae-997e-6c157077cdd2}, !- Outside Boundary Condition Object
  NoSun,                                  !- Sun Exposure
  NoWind,                                 !- Wind Exposure
  ,                                       !- View Factor to Ground
  ,                                       !- Number of Vertices
  0, 0, 9.144,                            !- X,Y,Z Vertex 1 {m}
  0, 18.288, 9.144,                       !- X,Y,Z Vertex 2 {m}
  30.48, 18.288, 9.144,                   !- X,Y,Z Vertex 3 {m}
  30.48, 0, 9.144;                        !- X,Y,Z Vertex 4 {m}

OS:Surface,
  {aa70f199-375d-43e2-a408-ddf4d9e2d2bc}, !- Handle
  Surface 17,                             !- Name
  Wall,                                   !- Surface Type
  ,                                       !- Construction Name
  {90a773c0-b669-4466-9c74-f19e88aad54e}, !- Space Name
  Outdoors,                               !- Outside Boundary Condition
  ,                                       !- Outside Boundary Condition Object
  SunExposed,                             !- Sun Exposure
  WindExposed,                            !- Wind Exposure
  ,                                       !- View Factor to Ground
  ,                                       !- Number of Vertices
  0, 0, 9.144,                            !- X,Y,Z Vertex 1 {m}
  30.48, 0, 9.144,                        !- X,Y,Z Vertex 2 {m}
  8.6868, 0, 13.716;                      !- X,Y,Z Vertex 3 {m}

OS:Surface,
  {19bfe755-dd3d-4b3f-b91b-1e1821b0f0a5}, !- Handle
  Surface 18,                             !- Name
  Wall,                                   !- Surface Type
  ,                                       !- Construction Name
  {90a773c0-b669-4466-9c74-f19e88aad54e}, !- Space Name
  Outdoors,                               !- Outside Boundary Condition
  ,                                       !- Outside Boundary Condition Object
  SunExposed,                             !- Sun Exposure
  WindExposed,                            !- Wind Exposure
  ,                                       !- View Factor to Ground
  ,                                       !- Number of Vertices
  30.48, 18.288, 9.144,                   !- X,Y,Z Vertex 1 {m}
  0, 18.288, 9.144,                       !- X,Y,Z Vertex 2 {m}
  8.6868, 18.288, 13.716;                 !- X,Y,Z Vertex 3 {m}

OS:Surface,
  {3119ee0b-d340-4bc8-b624-130047183ec5}, !- Handle
  Surface 19,                             !- Name
  RoofCeiling,                            !- Surface Type
  ,                                       !- Construction Name
  {90a773c0-b669-4466-9c74-f19e88aad54e}, !- Space Name
  Outdoors,                               !- Outside Boundary Condition
  ,                                       !- Outside Boundary Condition Object
  SunExposed,                             !- Sun Exposure
  WindExposed,                            !- Wind Exposure
  ,                                       !- View Factor to Ground
  ,                                       !- Number of Vertices
  0, 0, 9.144,                            !- X,Y,Z Vertex 1 {m}
  8.6868, 0, 13.716,                      !- X,Y,Z Vertex 2 {m}
  8.6868, 18.288, 13.716,                 !- X,Y,Z Vertex 3 {m}
  0, 18.288, 9.144;                       !- X,Y,Z Vertex 4 {m}

OS:Surface,
  {777e8cc2-d6c3-4af6-8331-ba8bbd617885}, !- Handle
  Surface 20,                             !- Name
  RoofCeiling,                            !- Surface Type
  ,                                       !- Construction Name
  {90a773c0-b669-4466-9c74-f19e88aad54e}, !- Space Name
  Outdoors,                               !- Outside Boundary Condition
  ,                                       !- Outside Boundary Condition Object
  SunExposed,                             !- Sun Exposure
  WindExposed,                            !- Wind Exposure
  ,                                       !- View Factor to Ground
  ,                                       !- Number of Vertices
  8.6868, 0, 13.716,                      !- X,Y,Z Vertex 1 {m}
  30.48, 0, 9.144,                        !- X,Y,Z Vertex 2 {m}
  30.48, 18.288, 9.144,                   !- X,Y,Z Vertex 3 {m}
  8.6868, 18.288, 13.716;                 !- X,Y,Z Vertex 4 {m}

OS:ThermalZone,
  {daefa251-8d0b-43a0-be6a-ea60ddf98971}, !- Handle
  sp-1-Occupied_Auditorium,               !- Name
  ,                                       !- Multiplier
  ,                                       !- Ceiling Height {m}
  ,                                       !- Volume {m3}
  ,                                       !- Floor Area {m2}
  ,                                       !- Zone Inside Convection Algorithm
  ,                                       !- Zone Outside Convection Algorithm
  ,                                       !- Zone Conditioning Equipment List Name
  {ef239471-241d-4a23-9f0d-771ee9dd3e7c}, !- Zone Air Inlet Port List
  {e0c83c93-8ac9-4cd2-a3f3-e919dc1b728f}, !- Zone Air Exhaust Port List
  {536dd221-5658-4a68-964d-373086565166}, !- Zone Air Node Name
  ,                                       !- Zone Return Air Node Name
  ,                                       !- Primary Daylighting Control Name
  ,                                       !- Fraction of Zone Controlled by Primary Daylighting Control
  ,                                       !- Secondary Daylighting Control Name
  ,                                       !- Fraction of Zone Controlled by Secondary Daylighting Control
  ,                                       !- Illuminance Map Name
  ,                                       !- Group Rendering Name
  ,                                       !- Thermostat Name
  No;                                     !- Use Ideal Air Loads

OS:Node,
  {c0198f51-1b09-4a03-a5af-4b44a4d0075e}, !- Handle
  Node 1,                                 !- Name
  {536dd221-5658-4a68-964d-373086565166}, !- Inlet Port
  ;                                       !- Outlet Port

OS:Connection,
  {536dd221-5658-4a68-964d-373086565166}, !- Handle
  {e1897f71-4bf8-41d8-89da-a0a4859248db}, !- Name
  {daefa251-8d0b-43a0-be6a-ea60ddf98971}, !- Source Object
  11,                                     !- Outlet Port
  {c0198f51-1b09-4a03-a5af-4b44a4d0075e}, !- Target Object
  2;                                      !- Inlet Port

OS:PortList,
  {ef239471-241d-4a23-9f0d-771ee9dd3e7c}, !- Handle
  Port List 1,                            !- Name
  {daefa251-8d0b-43a0-be6a-ea60ddf98971}; !- HVAC Component

OS:PortList,
  {e0c83c93-8ac9-4cd2-a3f3-e919dc1b728f}, !- Handle
  Port List 2,                            !- Name
  {daefa251-8d0b-43a0-be6a-ea60ddf98971}; !- HVAC Component

OS:Sizing:Zone,
  {90bc26bc-9216-4346-a952-086dd1c3b314}, !- Handle
  {daefa251-8d0b-43a0-be6a-ea60ddf98971}, !- Zone or ZoneList Name
  SupplyAirTemperature,                   !- Zone Cooling Design Supply Air Temperature Input Method
  14,                                     !- Zone Cooling Design Supply Air Temperature {C}
  11.11,                                  !- Zone Cooling Design Supply Air Temperature Difference {deltaC}
  SupplyAirTemperature,                   !- Zone Heating Design Supply Air Temperature Input Method
  40,                                     !- Zone Heating Design Supply Air Temperature {C}
  11.11,                                  !- Zone Heating Design Supply Air Temperature Difference {deltaC}
  0.0085,                                 !- Zone Cooling Design Supply Air Humidity Ratio {kg-H2O/kg-air}
  0.008,                                  !- Zone Heating Design Supply Air Humidity Ratio {kg-H2O/kg-air}
  ,                                       !- Zone Heating Sizing Factor
  ,                                       !- Zone Cooling Sizing Factor
  DesignDay,                              !- Cooling Design Air Flow Method
  ,                                       !- Cooling Design Air Flow Rate {m3/s}
  ,                                       !- Cooling Minimum Air Flow per Zone Floor Area {m3/s-m2}
  ,                                       !- Cooling Minimum Air Flow {m3/s}
  ,                                       !- Cooling Minimum Air Flow Fraction
  DesignDay,                              !- Heating Design Air Flow Method
  ,                                       !- Heating Design Air Flow Rate {m3/s}
  ,                                       !- Heating Maximum Air Flow per Zone Floor Area {m3/s-m2}
  ,                                       !- Heating Maximum Air Flow {m3/s}
  ,                                       !- Heating Maximum Air Flow Fraction
  ,                                       !- Design Zone Air Distribution Effectiveness in Cooling Mode
  ,                                       !- Design Zone Air Distribution Effectiveness in Heating Mode
  No,                                     !- Account for Dedicated Outdoor Air System
  NeutralSupplyAir,                       !- Dedicated Outdoor Air System Control Strategy
  autosize,                               !- Dedicated Outdoor Air Low Setpoint Temperature for Design {C}
  autosize;                               !- Dedicated Outdoor Air High Setpoint Temperature for Design {C}

OS:ZoneHVAC:EquipmentList,
  {3fa1fea5-1df5-4b09-b8b0-ade32dd25673}, !- Handle
  Zone HVAC Equipment List 1,             !- Name
  {daefa251-8d0b-43a0-be6a-ea60ddf98971}; !- Thermal Zone

OS:ThermalZone,
  {e246ef07-2a69-469f-b884-097a80c4e7fd}, !- Handle
  sp-3-Roof_Void,                         !- Name
  ,                                       !- Multiplier
  ,                                       !- Ceiling Height {m}
  ,                                       !- Volume {m3}
  ,                                       !- Floor Area {m2}
  ,                                       !- Zone Inside Convection Algorithm
  ,                                       !- Zone Outside Convection Algorithm
  ,                                       !- Zone Conditioning Equipment List Name
  {5b287130-f98c-468b-862a-5e2cfd97263a}, !- Zone Air Inlet Port List
  {1a99db98-130c-4981-bfc2-4e561de02f4a}, !- Zone Air Exhaust Port List
  {d9dbab6f-34a8-4605-a9f1-3495e0e40adb}, !- Zone Air Node Name
  ,                                       !- Zone Return Air Node Name
  ,                                       !- Primary Daylighting Control Name
  ,                                       !- Fraction of Zone Controlled by Primary Daylighting Control
  ,                                       !- Secondary Daylighting Control Name
  ,                                       !- Fraction of Zone Controlled by Secondary Daylighting Control
  ,                                       !- Illuminance Map Name
  ,                                       !- Group Rendering Name
  ,                                       !- Thermostat Name
  No;                                     !- Use Ideal Air Loads

OS:Node,
  {e4758a23-581c-439f-a12b-8126ae6a6d4a}, !- Handle
  Node 2,                                 !- Name
  {d9dbab6f-34a8-4605-a9f1-3495e0e40adb}, !- Inlet Port
  ;                                       !- Outlet Port

OS:Connection,
  {d9dbab6f-34a8-4605-a9f1-3495e0e40adb}, !- Handle
  {1f50c406-3b1a-43c1-8a2c-6ddc595e25e3}, !- Name
  {e246ef07-2a69-469f-b884-097a80c4e7fd}, !- Source Object