
OS:Version,
  {3e147f8a-5a04-4c98-b54d-5036169b4277}, !- Handle
  1.12.2;                                 !- Version Identifier

OS:SpaceType,
  {779c00f7-a059-458e-b571-ad1f36ea5e37}, !- Handle
  189.1-2009 - Office - Lobby - CZ4-8,    !- Name
  ,                                       !- Default Construction Set Name
  {2b4cad87-25f2-4b47-8b12-cc0b50d5d4c2}, !- Default Schedule Set Name
  {bb7e381c-db00-4402-8fc2-9509d20aba54}, !- Group Rendering Name
  {18ea3589-a88e-440b-8479-1a4996828d5e}, !- Design Specification Outdoor Air Object Name
  Office,                                 !- Standards Building Type
  Lobby;                                  !- Standards Space Type

OS:DefaultScheduleSet,
  {2b4cad87-25f2-4b47-8b12-cc0b50d5d4c2}, !- Handle
  189.1-2009 - Office - Lobby - CZ4-8 Schedule Set, !- Name
  ,                                       !- Hours of Operation Schedule Name
  {fbd79d6a-668d-4d15-8195-25898504e4fc}, !- Number of People Schedule Name
  {e6004dd9-d332-4505-b729-2ec2c06c2d3f}, !- People Activity Level Schedule Name
  {adb09e0a-8ad2-4e66-97bc-51a207c7de7c}, !- Lighting Schedule Name
  {6b9439e3-f147-4ae8-8457-fd0c3056e2ea}, !- Electric Equipment Schedule Name
  ,                                       !- Gas Equipment Schedule Name
  ,                                       !- Hot Water Equipment Schedule Name
  {0fdbc472-6654-415d-b4e0-13d1842dcd25}, !- Infiltration Schedule Name
  ,                                       !- Steam Equipment Schedule Name
  ;                                       !- Other Equipment Schedule Name

OS:Rendering:Color,
  {bb7e381c-db00-4402-8fc2-9509d20aba54}, !- Handle
  Rendering Color 23,                     !- Name
  230,                                    !- Rendering Red Value
  157,                                    !- Rendering Green Value
  120;                                    !- Rendering Blue Value

OS:DesignSpecification:OutdoorAir,
  {18ea3589-a88e-440b-8479-1a4996828d5e}, !- Handle
  189.1-2009 - Office - Lobby - CZ4-8 Ventilation, !- Name
  Sum,                                    !- Outdoor Air Method
  0.007079211648,                         !- Outdoor Air Flow per Person {m3/s-person}
  ,                                       !- Outdoor Air Flow per Floor Area {m3/s-m2}
  ,                                       !- Outdoor Air Flow Rate {m3/s}
  ,                                       !- Outdoor Air Flow Air Changes per Hour {1/hr}
  ;                                       !- Outdoor Air Flow Rate Fraction Schedule Name

OS:Schedule:Ruleset,
  {fbd79d6a-668d-4d15-8195-25898504e4fc}, ! Handle
  Office Misc Occ,                        ! Name
  {cba83ee9-6c49-4561-a638-353866879978}, ! Schedule Type Limits Name
  {9d9fdd70-8ed4-49f3-bf8a-ed15b048897e}, ! Default Day Schedule Name
  {1b6fb8dc-aa94-4a59-9259-732710f7bff5}, ! Summer Design Day Schedule Name
  {1a306aae-24a8-417e-9b74-8de0eeffd306}; ! Winter Design Day Schedule Name

OS:Schedule:Day,
  {9d9fdd70-8ed4-49f3-bf8a-ed15b048897e}, ! Handle
  Office Bldg Occ Default Schedule 1,     ! Name
  {cba83ee9-6c49-4561-a638-353866879978}, ! Schedule Type Limits Name
  ,                                       ! Interpolate to Timestep
  6,                                      !- Hour 1
  0,                                      !- Minute 1
  0,                                      !- Value Until Time 1
  7,                                      !- Hour 2
  0,                                      !- Minute 2
  0.100000001490116,                      !- Value Until Time 2
  8,                                      !- Hour 3
  0,                                      !- Minute 3
  0.200000002980232,                      !- Value Until Time 3
  20,                                     !- Hour 4
  0,                                      !- Minute 4
  0.400000005960464,                      !- Value Until Time 4
  22,                                     !- Hour 5
  0,                                      !- Minute 5
  0.100000001490116,                      !- Value Until Time 5
  24,                                     !- Hour 6
  0,                                      !- Minute 6
  0.0500000007450581;                     !- Value Until Time 6

OS:Schedule:Day,
  {1b6fb8dc-aa94-4a59-9259-732710f7bff5}, ! Handle
  Office Bldg Occ Summer Design Day 1,    ! Name
  {cba83ee9-6c49-4561-a638-353866879978}, ! Schedule Type Limits Name
  ,                                       ! Interpolate to Timestep
  6,                                      ! Hour 1
  0,                                      ! Minute 1
  0,                                      ! Value Until Time 1
  22,                                     ! Hour 2
  0,                                      ! Minute 2
  1,                                      ! Value Until Time 2
  24,                                     ! Hour 3
  0,                                      ! Minute 3
  0.050000000000000003;                   ! Value Until Time 3

OS:Schedule:Day,
  {1a306aae-24a8-417e-9b74-8de0eeffd306}, ! Handle
  Office Bldg Occ Winter Design Day 1,    ! Name
  {cba83ee9-6c49-4561-a638-353866879978}, ! Schedule Type Limits Name
  ,                                       ! Interpolate to Timestep
  24,                                     ! Hour 1
  0,                                      ! Minute 1
  0;                                      ! Value Until Time 1

OS:Schedule:Rule,
  {52c6d94b-29b5-4d87-99ca-d8ceeda1cdf6}, ! Handle
  Office Misc Occ Rule 1,                 ! Name
  {fbd79d6a-668d-4d15-8195-25898504e4fc}, ! Schedule Ruleset Name
  0,                                      ! Rule Order
  {23ec1204-5160-4432-ae53-61876350db52}, ! Day Schedule Name
  Yes,                                    ! Apply Sunday
  No,                                     ! Apply Monday
  No,                                     ! Apply Tuesday
  No,                                     ! Apply Wednesday
  No,                                     ! Apply Thursday
  No,                                     ! Apply Friday
  No,                                     ! Apply Saturday
  ,                                       ! Apply Holiday
  DateRange,                              ! Date Specification Type
  1,                                      ! Start Month
  1,                                      ! Start Day
  12,                                     ! End Month
  31;                                     ! End Day

OS:Schedule:Rule,
  {16e11ab7-210d-4c20-b4db-d1d6df77ca17}, ! Handle
  Office Misc Occ Rule 2,                 ! Name
  {fbd79d6a-668d-4d15-8195-25898504e4fc}, ! Schedule Ruleset Name
  1,                                      ! Rule Order
  {fa13639a-6850-4871-b249-a9d775dc7f2c}, ! Day Schedule Name
  No,                                     ! Apply Sunday
  No,                                     ! Apply Monday
  No,                                     ! Apply Tuesday
  No,                                     ! Apply Wednesday
  No,                                     ! Apply Thursday
  No,                                     ! Apply Friday
  Yes,                                    ! Apply Saturday
  ,                                       ! Apply Holiday
  DateRange,                              ! Date Specification Type
  1,                                      ! Start Month
  1,                                      ! Start Day
  12,                                     ! End Month
  31;                                     ! End Day

OS:Schedule:Day,
  {23ec1204-5160-4432-ae53-61876350db52}, ! Handle
  Office Bldg Occ Rule 1 Day Schedule 1,  ! Name
  {cba83ee9-6c49-4561-a638-353866879978}, ! Schedule Type Limits Name
  ,                                       ! Interpolate to Timestep
  24,                                     ! Hour 1
  0,                                      ! Minute 1
  0;                                      ! Value Until Time 1

OS:Schedule:Day,
  {fa13639a-6850-4871-b249-a9d775dc7f2c}, ! Handle
  Office Bldg Occ Rule 2 Day Schedule 1,  ! Name
  {cba83ee9-6c49-4561-a638-353866879978}, ! Schedule Type Limits Name
  ,                                       ! Interpolate to Timestep
  6,                                      !- Hour 1
  0,                                      !- Minute 1
  0,                                      !- Value Until Time 1
  8,                                      !- Hour 2
  0,                                      !- Minute 2
  0.100000001490116,                      !- Value Until Time 2
  14,                                     !- Hour 3
  0,                                      !- Minute 3
  0.25,                                   !- Value Until Time 3
  17,                                     !- Hour 4
  0,                                      !- Minute 4
  0.100000001490116,                      !- Value Until Time 4
  24,                                     !- Hour 5
  0,                                      !- Minute 5
  0;                                      !- Value Until Time 5

OS:Schedule:Ruleset,
  {e6004dd9-d332-4505-b729-2ec2c06c2d3f}, ! Handle
  Office Activity,                        ! Name
  {2bebed1f-aded-4ddd-8e60-4498cab66640}, ! Schedule Type Limits Name
  {aebbf1d0-9b2e-4771-b4a5-6b3080f55d2a}, ! Default Day Schedule Name
  {fe3f59f2-c7f5-4610-84cc-b854c58e623f}, ! Summer Design Day Schedule Name
  {3154d228-2dd0-4be2-b236-88eb2f121960}; ! Winter Design Day Schedule Name

OS:Schedule:Day,
  {aebbf1d0-9b2e-4771-b4a5-6b3080f55d2a}, ! Handle
  Office Activity Default Schedule,       ! Name
  {2bebed1f-aded-4ddd-8e60-4498cab66640}, ! Schedule Type Limits Name
  ,                                       ! Interpolate to Timestep
  24,                                     !- Hour 1
  0,                                      !- Minute 1
  132;                                    !- Value Until Time 1

OS:Schedule:Day,
  {fe3f59f2-c7f5-4610-84cc-b854c58e623f}, ! Handle
  Office Activity Summer Design Day,      ! Name
  {2bebed1f-aded-4ddd-8e60-4498cab66640}, ! Schedule Type Limits Name
  ,                                       ! Interpolate to Timestep
  24,                                     !- Hour 1
  0,                                      !- Minute 1
  132;                                    !- Value Until Time 1

OS:Schedule:Day,
  {3154d228-2dd0-4be2-b236-88eb2f121960}, ! Handle
  Office Activity Winter Design Day,      ! Name
  {2bebed1f-aded-4ddd-8e60-4498cab66640}, ! Schedule Type Limits Name
  ,                                       ! Interpolate to Timestep
  24,                                     !- Hour 1
  0,                                      !- Minute 1
  132;                                    !- Value Until Time 1

OS:Schedule:Ruleset,
  {adb09e0a-8ad2-4e66-97bc-51a207c7de7c}, ! Handle
  Office Bldg Light,                      ! Name
  {cba83ee9-6c49-4561-a638-353866879978}, ! Schedule Type Limits Name
  {3e23ae07-f36a-4468-a284-03d2d43f6453}, ! Default Day Schedule Name
  {ea246c35-4ec8-4f65-b20b-da54e1d183ea}, ! Summer Design Day Schedule Name
  {e00c74d7-398a-4fbd-87ef-22091c2d7fa4}; ! Winter Design Day Schedule Name

OS:Schedule:Day,
  {3e23ae07-f36a-4468-a284-03d2d43f6453}, ! Handle
  Office Bldg Light Default Schedule,     ! Name
  {cba83ee9-6c49-4561-a638-353866879978}, ! Schedule Type Limits Name
  ,                                       ! Interpolate to Timestep
  5,                                      !- Hour 1
  0,                                      !- Minute 1
  0.05,                                   !- Value Until Time 1
  7,                                      !- Hour 2
  0,                                      !- Minute 2
  0.1,                                    !- Value Until Time 2
  8,                                      !- Hour 3
  0,                                      !- Minute 3
  0.3,                                    !- Value Until Time 3
  17,                                     !- Hour 4
  0,                                      !- Minute 4
  0.9,                                    !- Value Until Time 4
  18,                                     !- Hour 5
  0,                                      !- Minute 5
  0.7,                                    !- Value Until Time 5
  20,                                     !- Hour 6
  0,                                      !- Minute 6
  0.5,                                    !- Value Until Time 6
  22,                                     !- Hour 7
  0,                                      !- Minute 7
  0.3,                                    !- Value Until Time 7
  23,                                     !- Hour 8
  0,                                      !- Minute 8
  0.1,                                    !- Value Until Time 8
  24,                                     !- Hour 9
  0,                                      !- Minute 9
  0.05;                                   !- Value Until Time 9

OS:Schedule:Day,
  {ea246c35-4ec8-4f65-b20b-da54e1d183ea}, ! Handle
  Office Bldg Light Summer Design Day,    ! Name
  {cba83ee9-6c49-4561-a638-353866879978}, ! Schedule Type Limits Name
  ,                                       ! Interpolate to Timestep
  24,                                     ! Hour 1
  0,                                      ! Minute 1
  1;                                      ! Value Until Time 1

OS:Schedule:Day,
  {e00c74d7-398a-4fbd-87ef-22091c2d7fa4}, ! Handle
  Office Bldg Light Winter Design Day,    ! Name
  {cba83ee9-6c49-4561-a638-353866879978}, ! Schedule Type Limits Name
  ,                                       ! Interpolate to Timestep
  24,                                     ! Hour 1
  0,                                      ! Minute 1
  0;                                      ! Value Until Time 1

OS:Schedule:Rule,
  {015bf5b4-4594-486e-917b-46e50f6c3ede}, ! Handle
  Office Bldg Light Rule 1,               ! Name
  {adb09e0a-8ad2-4e66-97bc-51a207c7de7c}, ! Schedule Ruleset Name
  0,                                      ! Rule Order
  {0757e5ac-afb5-46b6-83ca-2fadfa728b14}, ! Day Schedule Name
  Yes,                                    ! Apply Sunday
  No,                                     ! Apply Monday
  No,                                     ! Apply Tuesday
  No,                                     ! Apply Wednesday
  No,                                     ! Apply Thursday
  No,                                     ! Apply Friday
  No,                                     ! Apply Saturday
  ,                                       ! Apply Holiday
  DateRange,                              ! Date Specification Type
  1,                                      ! Start Month
  1,                                      ! Start Day
  12,                                     ! End Month
  31;                                     ! End Day

OS:Schedule:Rule,
  {14e53dd8-d30e-4808-b5c5-c6a625fea4a2}, ! Handle
  Office Bldg Light Rule 2,               ! Name
  {adb09e0a-8ad2-4e66-97bc-51a207c7de7c}, ! Schedule Ruleset Name
  1,                                      ! Rule Order
  {24bf61b2-e23a-4e6d-afad-01d918b3d3aa}, ! Day Schedule Name
  No,                                     ! Apply Sunday
  No,                                     ! Apply Monday
  No,                                     ! Apply Tuesday
  No,                                     ! Apply Wednesday
  No,                                     ! Apply Thursday
  No,                                     ! Apply Friday
  Yes,                                    ! Apply Saturday
  ,                                       ! Apply Holiday
  DateRange,                              ! Date Specification Type
  1,                                      ! Start Month
  1,                                      ! Start Day
  12,                                     ! End Month
  31;                                     ! End Day

OS:Schedule:Day,
  {0757e5ac-afb5-46b6-83ca-2fadfa728b14}, ! Handle
  Office Bldg Light Rule 1 Day Schedule,  ! Name
  {cba83ee9-6c49-4561-a638-353866879978}, ! Schedule Type Limits Name
  ,                                       ! Interpolate to Timestep
  24,                                     ! Hour 1
  0,                                      ! Minute 1
  0.050000000000000003;                   ! Value Until Time 1

OS:Schedule:Day,
  {24bf61b2-e23a-4e6d-afad-01d918b3d3aa}, ! Handle
  Office Bldg Light Rule 2 Day Schedule,  ! Name
  {cba83ee9-6c49-4561-a638-353866879978}, ! Schedule Type Limits Name
  ,                                       ! Interpolate to Timestep
  6,                                      ! Hour 1
  0,                                      ! Minute 1
  0.050000000000000003,                   ! Value Until Time 1
  8,                                      ! Hour 2
  0,                                      ! Minute 2
  0.10000000000000001,                    ! Value Until Time 2
  14,                                     ! Hour 3
  0,                                      ! Minute 3
  0.5,                                    ! Value Until Time 3
  17,                                     ! Hour 4
  0,                                      ! Minute 4
  0.14999999999999999,                    ! Value Until Time 4
  24,                                     ! Hour 5
  0,                                      ! Minute 5
  0.050000000000000003;                   ! Value Until Time 5

OS:Schedule:Ruleset,
  {6b9439e3-f147-4ae8-8457-fd0c3056e2ea}, ! Handle
  Office Bldg Equip,                      ! Name
  {cba83ee9-6c49-4561-a638-353866879978}, ! Schedule Type Limits Name
  {a3183b4c-0c41-4718-877f-aada2d21daf0}, ! Default Day Schedule Name
  {f95afec0-8bcc-4eea-af13-175ca33a4686}, ! Summer Design Day Schedule Name
  {b0311713-fe70-4472-bd97-a7391a1e65eb}; ! Winter Design Day Schedule Name

OS:Schedule:Day,
  {a3183b4c-0c41-4718-877f-aada2d21daf0}, ! Handle
  Office Bldg Equip Default Schedule,     ! Name
  {cba83ee9-6c49-4561-a638-353866879978}, ! Schedule Type Limits Name
  ,                                       ! Interpolate to Timestep
  8,                                      !- Hour 1
  0,                                      !- Minute 1
  0.4,                                    !- Value Until Time 1
  12,                                     !- Hour 2
  0,                                      !- Minute 2
  0.9,                                    !- Value Until Time 2
  13,                                     !- Hour 3
  0,                                      !- Minute 3
  0.8,                                    !- Value Until Time 3
  17,                                     !- Hour 4
  0,                                      !- Minute 4
  0.9,                                    !- Value Until Time 4
  18,                                     !- Hour 5
  0,                                      !- Minute 5
  0.8,                                    !- Value Until Time 5
  20,                                     !- Hour 6
  0,                                      !- Minute 6
  0.6,                                    !- Value Until Time 6
  22,                                     !- Hour 7
  0,                                      !- Minute 7
  0.5,                                    !- Value Until Time 7
  24,                                     !- Hour 8
  0,                                      !- Minute 8
  0.4;                                    !- Value Until Time 8

OS:Schedule:Day,
  {f95afec0-8bcc-4eea-af13-175ca33a4686}, ! Handle
  Office Bldg Equip Summer Design Day,    ! Name
  {cba83ee9-6c49-4561-a638-353866879978}, ! Schedule Type Limits Name
  ,                                       ! Interpolate to Timestep
  24,                                     ! Hour 1
  0,                                      ! Minute 1
  1;                                      ! Value Until Time 1

OS:Schedule:Day,
  {b0311713-fe70-4472-bd97-a7391a1e65eb}, ! Handle
  Office Bldg Equip Winter Design Day,    ! Name
  {cba83ee9-6c49-4561-a638-353866879978}, ! Schedule Type Limits Name
  ,                                       ! Interpolate to Timestep
  24,                                     ! Hour 1
  0,                                      ! Minute 1
  0;                                      ! Value Until Time 1

OS:Schedule:Rule,
  {fa23bc62-6781-4d80-b760-7b5eb50763ee}, ! Handle
  Office Bldg Equip Rule 1,               ! Name
  {6b9439e3-f147-4ae8-8457-fd0c3056e2ea}, ! Schedule Ruleset Name
  0,                                      ! Rule Order
  {4e876455-407c-4b3b-9a37-25d9a38adcd3}, ! Day Schedule Name
  Yes,                                    ! Apply Sunday
  No,                                     ! Apply Monday
  No,                                     ! Apply Tuesday
  No,                                     ! Apply Wednesday
  No,                                     ! Apply Thursday
  No,                                     ! Apply Friday
  No,                                     ! Apply Saturday
  ,                                       ! Apply Holiday
  DateRange,                              ! Date Specification Type
  1,                                      ! Start Month
  1,                                      ! Start Day
  12,                                     ! End Month
  31;                                     ! End Day

OS:Schedule:Rule,
  {57fe27a7-9e70-493d-b7dd-47486eb3c30d}, ! Handle
  Office Bldg Equip Rule 2,               ! Name
  {6b9439e3-f147-4ae8-8457-fd0c3056e2ea}, ! Schedule Ruleset Name
  1,                                      ! Rule Order
  {97d86642-4242-44dd-8634-3e40d25c31a6}, ! Day Schedule Name
  No,                                     ! Apply Sunday
  No,                                     ! Apply Monday
  No,                                     ! Apply Tuesday
  No,                                     ! Apply Wednesday
  No,                                     ! Apply Thursday
  No,                                     ! Apply Friday
  Yes,                                    ! Apply Saturday
  ,                                       ! Apply Holiday
  DateRange,                              ! Date Specification Type
  1,                                      ! Start Month
  1,                                      ! Start Day
  12,                                     ! End Month
  31;                                     ! End Day

OS:Schedule:Day,
  {4e876455-407c-4b3b-9a37-25d9a38adcd3}, ! Handle
  Office Bldg Equip Rule 1 Day Schedule,  ! Name
  {cba83ee9-6c49-4561-a638-353866879978}, ! Schedule Type Limits Name
  ,                                       ! Interpolate to Timestep
  24,                                     ! Hour 1
  0,                                      ! Minute 1
  0.29999999999999999;                    ! Value Until Time 1

OS:Schedule:Day,
  {97d86642-4242-44dd-8634-3e40d25c31a6}, ! Handle
  Office Bldg Equip Rule 2 Day Schedule,  ! Name
  {cba83ee9-6c49-4561-a638-353866879978}, ! Schedule Type Limits Name
  ,                                       ! Interpolate to Timestep
  6,                                      ! Hour 1
  0,                                      ! Minute 1
  0.29999999999999999,                    ! Value Until Time 1
  8,                                      ! Hour 2
  0,                                      ! Minute 2
  0.40000000000000002,                    ! Value Until Time 2
  14,                                     ! Hour 3
  0,                                      ! Minute 3
  0.5,                                    ! Value Until Time 3
  17,                                     ! Hour 4
  0,                                      ! Minute 4
  0.34999999999999998,                    ! Value Until Time 4
  24,                                     ! Hour 5
  0,                                      ! Minute 5
  0.29999999999999999;                    ! Value Until Time 5

OS:Schedule:Ruleset,
  {0fdbc472-6654-415d-b4e0-13d1842dcd25}, ! Handle
  Office Infil Quarter On,                ! Name
  {cba83ee9-6c49-4561-a638-353866879978}, ! Schedule Type Limits Name
  {d8ec4f60-e11c-4c47-824f-d9438644bfe2}, ! Default Day Schedule Name
  {bbdbe003-18e7-4c03-9c44-c73c12bf8c9d}, ! Summer Design Day Schedule Name
  {f66cb01a-a9ca-4178-aace-ad2379d375b8}; ! Winter Design Day Schedule Name

OS:Schedule:Day,
  {d8ec4f60-e11c-4c47-824f-d9438644bfe2}, ! Handle
  Office Infil Quarter On Default Schedule, ! Name
  {cba83ee9-6c49-4561-a638-353866879978}, ! Schedule Type Limits Name
  ,                                       ! Interpolate to Timestep
  6,                                      !- Hour 1
  0,                                      !- Minute 1
  1,                                      !- Value Until Time 1
  22,                                     !- Hour 2
  0,                                      !- Minute 2
  0.25,                                   !- Value Until Time 2
  24,                                     !- Hour 3
  0,                                      !- Minute 3
  1;                                      !- Value Until Time 3

OS:Schedule:Day,
  {bbdbe003-18e7-4c03-9c44-c73c12bf8c9d}, ! Handle
  Office Infil Quarter On Summer Design Day, ! Name
  {cba83ee9-6c49-4561-a638-353866879978}, ! Schedule Type Limits Name
  ,                                       ! Interpolate to Timestep
  6,                                      ! Hour 1
  0,                                      ! Minute 1
  1,                                      ! Value Until Time 1
  22,                                     ! Hour 2
  0,                                      ! Minute 2
  0.25,                                   ! Value Until Time 2
  24,                                     ! Hour 3
  0,                                      ! Minute 3
  1;                                      ! Value Until Time 3

OS:Schedule:Day,
  {f66cb01a-a9ca-4178-aace-ad2379d375b8}, ! Handle
  Office Infil Quarter On Winter Design Day, ! Name
  {cba83ee9-6c49-4561-a638-353866879978}, ! Schedule Type Limits Name
  ,                                       ! Interpolate to Timestep
  6,                                      ! Hour 1
  0,                                      ! Minute 1
  1,                                      ! Value Until Time 1
  18,                                     ! Hour 2
  0,                                      ! Minute 2
  0.25,                                   ! Value Until Time 2
  24,                                     ! Hour 3
  0,                                      ! Minute 3
  1;                                      ! Value Until Time 3

OS:Schedule:Rule,
  {e50b3658-4b00-4fec-ba51-92943bad5ddb}, ! Handle
  Office Infil Quarter On Rule 1,         ! Name
  {0fdbc472-6654-415d-b4e0-13d1842dcd25}, ! Schedule Ruleset Name
  0,                                      ! Rule Order
  {3bf5e2b1-6491-4aa7-b176-32f1ad04aafe}, ! Day Schedule Name
  Yes,                                    ! Apply Sunday
  No,                                     ! Apply Monday
  No,                                     ! Apply Tuesday
  No,                                     ! Apply Wednesday
  No,                                     ! Apply Thursday
  No,                                     ! Apply Friday
  No,                                     ! Apply Saturday
  ,                                       ! Apply Holiday
  DateRange,                              ! Date Specification Type
  1,                                      ! Start Month
  1,                                      ! Start Day
  12,                                     ! End Month
  31;                                     ! End Day

OS:Schedule:Rule,
  {9a8a1a65-81d4-4233-8297-0a69325a6d50}, ! Handle
  Office Infil Quarter On Rule 2,         ! Name
  {0fdbc472-6654-415d-b4e0-13d1842dcd25}, ! Schedule Ruleset Name
  1,                                      ! Rule Order
  {5094ad45-ebf5-4f18-b879-45f63d5835ef}, ! Day Schedule Name
  No,                                     ! Apply Sunday
  No,                                     ! Apply Monday
  No,                                     ! Apply Tuesday
  No,                                     ! Apply Wednesday
  No,                                     ! Apply Thursday
  No,                                     ! Apply Friday
  Yes,                                    ! Apply Saturday
  ,                                       ! Apply Holiday
  DateRange,                              ! Date Specification Type
  1,                                      ! Start Month
  1,                                      ! Start Day
  12,                                     ! End Month
  31;                                     ! End Day

OS:Schedule:Day,
  {3bf5e2b1-6491-4aa7-b176-32f1ad04aafe}, ! Handle
  Office Infil Quarter On Rule 1 Day Schedule, ! Name
  {cba83ee9-6c49-4561-a638-353866879978}, ! Schedule Type Limits Name
  ,                                       ! Interpolate to Timestep
  24,                                     ! Hour 1
  0,                                      ! Minute 1
  1;                                      ! Value Until Time 1

OS:Schedule:Day,
  {5094ad45-ebf5-4f18-b879-45f63d5835ef}, ! Handle
  Office Infil Quarter On Rule 2 Day Schedule, ! Name
  {cba83ee9-6c49-4561-a638-353866879978}, ! Schedule Type Limits Name
  ,                                       ! Interpolate to Timestep
  6,                                      ! Hour 1
  0,                                      ! Minute 1
  1,                                      ! Value Until Time 1
  18,                                     ! Hour 2
  0,                                      ! Minute 2
  0.25,                                   ! Value Until Time 2
  24,                                     ! Hour 3
  0,                                      ! Minute 3
  1;                                      ! Value Until Time 3

OS:ScheduleTypeLimits,
  {cba83ee9-6c49-4561-a638-353866879978}, ! Handle
  Fraction,                               ! Name