
OS:Version,
  {37c307a9-dc12-4479-b9d7-f285eb808743}, !- Handle
  1.12.2;                                 !- Version Identifier

OS:SpaceType,
  {d0d95449-7fc7-402f-aa33-d6a7a27a547f}, !- Handle
  189.1-2009 - Office - Lobby - CZ4-8,    !- Name
  ,                                       !- Default Construction Set Name
  {9ec7e002-ebd2-4cca-ba12-d321c81f3d9d}, !- Default Schedule Set Name
  {946fe784-8910-4af1-a456-806777841fae}, !- Group Rendering Name
  {0a198729-fe25-4d19-b0d7-74fa63820956}, !- Design Specification Outdoor Air Object Name
  Office,                                 !- Standards Building Type
  Lobby;                                  !- Standards Space Type

OS:DefaultScheduleSet,
  {9ec7e002-ebd2-4cca-ba12-d321c81f3d9d}, !- Handle
  189.1-2009 - Office - Lobby - CZ4-8 Schedule Set, !- Name
  ,                                       !- Hours of Operation Schedule Name
  {4137b77f-36fd-46ca-8841-a205e7dea971}, !- Number of People Schedule Name
  {907233b6-db89-4e30-878f-fa18fddf4b9c}, !- People Activity Level Schedule Name
  {1b54ab4e-0ec3-4e2a-965e-3ebee9b89656}, !- Lighting Schedule Name
  {cb31ec6a-981a-4193-9abc-057d06bc7b2f}, !- Electric Equipment Schedule Name
  ,                                       !- Gas Equipment Schedule Name
  ,                                       !- Hot Water Equipment Schedule Name
  {bd1ef4b0-cc63-46a0-ad72-33674311c257}, !- Infiltration Schedule Name
  ,                                       !- Steam Equipment Schedule Name
  ;                                       !- Other Equipment Schedule Name

OS:Rendering:Color,
  {946fe784-8910-4af1-a456-806777841fae}, !- Handle
  Rendering Color 23,                     !- Name
  230,                                    !- Rendering Red Value
  157,                                    !- Rendering Green Value
  120;                                    !- Rendering Blue Value

OS:DesignSpecification:OutdoorAir,
  {0a198729-fe25-4d19-b0d7-74fa63820956}, !- Handle
  189.1-2009 - Office - Lobby - CZ4-8 Ventilation, !- Name
  Sum,                                    !- Outdoor Air Method
  0.007079211648,                         !- Outdoor Air Flow per Person {m3/s-person}
  ,                                       !- Outdoor Air Flow per Floor Area {m3/s-m2}
  ,                                       !- Outdoor Air Flow Rate {m3/s}
  ,                                       !- Outdoor Air Flow Air Changes per Hour {1/hr}
  ;                                       !- Outdoor Air Flow Rate Fraction Schedule Name

OS:Schedule:Ruleset,
  {4137b77f-36fd-46ca-8841-a205e7dea971}, ! Handle
  Office Misc Occ,                        ! Name
  {569cc8b7-0006-4116-a982-d9e28a05b5d4}, ! Schedule Type Limits Name
  {f1ea1d4a-29b4-4b29-9736-2b2953a40987}, ! Default Day Schedule Name
  {89544864-f8de-4708-bdff-86b378f58fb7}, ! Summer Design Day Schedule Name
  {b29311e1-f553-4df1-8b4d-0b30dd467ca5}; ! Winter Design Day Schedule Name

OS:Schedule:Day,
  {f1ea1d4a-29b4-4b29-9736-2b2953a40987}, ! Handle
  Office Bldg Occ Default Schedule 1,     ! Name
  {569cc8b7-0006-4116-a982-d9e28a05b5d4}, ! Schedule Type Limits Name
  ,                                       ! Interpolate to Timestep
  6,                                      !- Hour 1
  0,                                      !- Minute 1
  0,                                      !- Value Until Time 1
  7,                                      !- Hour 2
  0,                                      !- Minute 2
  0.100000001490116,                      !- Value Until Time 2
  8,                                      !- Hour 3
  0,                                      !- Minute 3
  0.200000002980232,                      !- Value Until Time 3
  20,                                     !- Hour 4
  0,                                      !- Minute 4
  0.400000005960464,                      !- Value Until Time 4
  22,                                     !- Hour 5
  0,                                      !- Minute 5
  0.100000001490116,                      !- Value Until Time 5
  24,                                     !- Hour 6
  0,                                      !- Minute 6
  0.0500000007450581;                     !- Value Until Time 6

OS:Schedule:Day,
  {89544864-f8de-4708-bdff-86b378f58fb7}, ! Handle
  Office Bldg Occ Summer Design Day 1,    ! Name
  {569cc8b7-0006-4116-a982-d9e28a05b5d4}, ! Schedule Type Limits Name
  ,                                       ! Interpolate to Timestep
  6,                                      ! Hour 1
  0,                                      ! Minute 1
  0,                                      ! Value Until Time 1
  22,                                     ! Hour 2
  0,                                      ! Minute 2
  1,                                      ! Value Until Time 2
  24,                                     ! Hour 3
  0,                                      ! Minute 3
  0.050000000000000003;                   ! Value Until Time 3

OS:Schedule:Day,
  {b29311e1-f553-4df1-8b4d-0b30dd467ca5}, ! Handle
  Office Bldg Occ Winter Design Day 1,    ! Name
  {569cc8b7-0006-4116-a982-d9e28a05b5d4}, ! Schedule Type Limits Name
  ,                                       ! Interpolate to Timestep
  24,                                     ! Hour 1
  0,                                      ! Minute 1
  0;                                      ! Value Until Time 1

OS:Schedule:Rule,
  {93135527-7381-486b-818b-2cb8bc4e3495}, ! Handle
  Office Misc Occ Rule 1,                 ! Name
  {4137b77f-36fd-46ca-8841-a205e7dea971}, ! Schedule Ruleset Name
  0,                                      ! Rule Order
  {45b41023-05bf-49a9-825a-beffc1d2accd}, ! Day Schedule Name
  Yes,                                    ! Apply Sunday
  No,                                     ! Apply Monday
  No,                                     ! Apply Tuesday
  No,                                     ! Apply Wednesday
  No,                                     ! Apply Thursday
  No,                                     ! Apply Friday
  No,                                     ! Apply Saturday
  ,                                       ! Apply Holiday
  DateRange,                              ! Date Specification Type
  1,                                      ! Start Month
  1,                                      ! Start Day
  12,                                     ! End Month
  31;                                     ! End Day

OS:Schedule:Rule,
  {ec7ea69d-49bc-41d4-8426-595938067276}, ! Handle
  Office Misc Occ Rule 2,                 ! Name
  {4137b77f-36fd-46ca-8841-a205e7dea971}, ! Schedule Ruleset Name
  1,                                      ! Rule Order
  {4b72e73d-8605-45a7-9061-0275cd76e2c5}, ! Day Schedule Name
  No,                                     ! Apply Sunday
  No,                                     ! Apply Monday
  No,                                     ! Apply Tuesday
  No,                                     ! Apply Wednesday
  No,                                     ! Apply Thursday
  No,                                     ! Apply Friday
  Yes,                                    ! Apply Saturday
  ,                                       ! Apply Holiday
  DateRange,                              ! Date Specification Type
  1,                                      ! Start Month
  1,                                      ! Start Day
  12,                                     ! End Month
  31;                                     ! End Day

OS:Schedule:Day,
  {45b41023-05bf-49a9-825a-beffc1d2accd}, ! Handle
  Office Bldg Occ Rule 1 Day Schedule 1,  ! Name
  {569cc8b7-0006-4116-a982-d9e28a05b5d4}, ! Schedule Type Limits Name
  ,                                       ! Interpolate to Timestep
  24,                                     ! Hour 1
  0,                                      ! Minute 1
  0;                                      ! Value Until Time 1

OS:Schedule:Day,
  {4b72e73d-8605-45a7-9061-0275cd76e2c5}, ! Handle
  Office Bldg Occ Rule 2 Day Schedule 1,  ! Name
  {569cc8b7-0006-4116-a982-d9e28a05b5d4}, ! Schedule Type Limits Name
  ,                                       ! Interpolate to Timestep
  6,                                      !- Hour 1
  0,                                      !- Minute 1
  0,                                      !- Value Until Time 1
  8,                                      !- Hour 2
  0,                                      !- Minute 2
  0.100000001490116,                      !- Value Until Time 2
  14,                                     !- Hour 3
  0,                                      !- Minute 3
  0.25,                                   !- Value Until Time 3
  17,                                     !- Hour 4
  0,                                      !- Minute 4
  0.100000001490116,                      !- Value Until Time 4
  24,                                     !- Hour 5
  0,                                      !- Minute 5
  0;                                      !- Value Until Time 5

OS:Schedule:Ruleset,
  {907233b6-db89-4e30-878f-fa18fddf4b9c}, ! Handle
  Office Activity,                        ! Name
  {38ee2ad6-6e72-4459-8efc-6a70b7a22f69}, ! Schedule Type Limits Name
  {dd712300-a71d-4ceb-ad05-f923ea08d0ad}, ! Default Day Schedule Name
  {8038d4fb-f0ff-4645-940f-70dc559d086a}, ! Summer Design Day Schedule Name
  {75e13ced-e06e-4589-a50a-bf98d9c9c71d}; ! Winter Design Day Schedule Name

OS:Schedule:Day,
  {dd712300-a71d-4ceb-ad05-f923ea08d0ad}, ! Handle
  Office Activity Default Schedule,       ! Name
  {38ee2ad6-6e72-4459-8efc-6a70b7a22f69}, ! Schedule Type Limits Name
  ,                                       ! Interpolate to Timestep
  24,                                     !- Hour 1
  0,                                      !- Minute 1
  132;                                    !- Value Until Time 1

OS:Schedule:Day,
  {8038d4fb-f0ff-4645-940f-70dc559d086a}, ! Handle
  Office Activity Summer Design Day,      ! Name
  {38ee2ad6-6e72-4459-8efc-6a70b7a22f69}, ! Schedule Type Limits Name
  ,                                       ! Interpolate to Timestep
  24,                                     !- Hour 1
  0,                                      !- Minute 1
  132;                                    !- Value Until Time 1

OS:Schedule:Day,
  {75e13ced-e06e-4589-a50a-bf98d9c9c71d}, ! Handle
  Office Activity Winter Design Day,      ! Name
  {38ee2ad6-6e72-4459-8efc-6a70b7a22f69}, ! Schedule Type Limits Name
  ,                                       ! Interpolate to Timestep
  24,                                     !- Hour 1
  0,                                      !- Minute 1
  132;                                    !- Value Until Time 1

OS:Schedule:Ruleset,
  {1b54ab4e-0ec3-4e2a-965e-3ebee9b89656}, ! Handle
  Office Bldg Light,                      ! Name
  {569cc8b7-0006-4116-a982-d9e28a05b5d4}, ! Schedule Type Limits Name
  {82c60c8e-34d6-45e9-bb26-cae379b2b814}, ! Default Day Schedule Name
  {39c97123-f05b-47d8-ab28-34e07694b133}, ! Summer Design Day Schedule Name
  {ab1ef42c-3f23-4061-b847-32eba245b232}; ! Winter Design Day Schedule Name

OS:Schedule:Day,
  {82c60c8e-34d6-45e9-bb26-cae379b2b814}, ! Handle
  Office Bldg Light Default Schedule,     ! Name
  {569cc8b7-0006-4116-a982-d9e28a05b5d4}, ! Schedule Type Limits Name
  ,                                       ! Interpolate to Timestep
  5,                                      !- Hour 1
  0,                                      !- Minute 1
  0.05,                                   !- Value Until Time 1
  7,                                      !- Hour 2
  0,                                      !- Minute 2
  0.1,                                    !- Value Until Time 2
  8,                                      !- Hour 3
  0,                                      !- Minute 3
  0.3,                                    !- Value Until Time 3
  17,                                     !- Hour 4
  0,                                      !- Minute 4
  0.9,                                    !- Value Until Time 4
  18,                                     !- Hour 5
  0,                                      !- Minute 5
  0.7,                                    !- Value Until Time 5
  20,                                     !- Hour 6
  0,                                      !- Minute 6
  0.5,                                    !- Value Until Time 6
  22,                                     !- Hour 7
  0,                                      !- Minute 7
  0.3,                                    !- Value Until Time 7
  23,                                     !- Hour 8
  0,                                      !- Minute 8
  0.1,                                    !- Value Until Time 8
  24,                                     !- Hour 9
  0,                                      !- Minute 9
  0.05;                                   !- Value Until Time 9

OS:Schedule:Day,
  {39c97123-f05b-47d8-ab28-34e07694b133}, ! Handle
  Office Bldg Light Summer Design Day,    ! Name
  {569cc8b7-0006-4116-a982-d9e28a05b5d4}, ! Schedule Type Limits Name
  ,                                       ! Interpolate to Timestep
  24,                                     ! Hour 1
  0,                                      ! Minute 1
  1;                                      ! Value Until Time 1

OS:Schedule:Day,
  {ab1ef42c-3f23-4061-b847-32eba245b232}, ! Handle
  Office Bldg Light Winter Design Day,    ! Name
  {569cc8b7-0006-4116-a982-d9e28a05b5d4}, ! Schedule Type Limits Name
  ,                                       ! Interpolate to Timestep
  24,                                     ! Hour 1
  0,                                      ! Minute 1
  0;                                      ! Value Until Time 1

OS:Schedule:Rule,
  {d7d9a04b-2da1-4ba4-a86c-a2dfde62e658}, ! Handle
  Office Bldg Light Rule 1,               ! Name
  {1b54ab4e-0ec3-4e2a-965e-3ebee9b89656}, ! Schedule Ruleset Name
  0,                                      ! Rule Order
  {91650e5e-f4ce-44f1-b87e-a85073cf804d}, ! Day Schedule Name
  Yes,                                    ! Apply Sunday
  No,                                     ! Apply Monday
  No,                                     ! Apply Tuesday
  No,                                     ! Apply Wednesday
  No,                                     ! Apply Thursday
  No,                                     ! Apply Friday
  No,                                     ! Apply Saturday
  ,                                       ! Apply Holiday
  DateRange,                              ! Date Specification Type
  1,                                      ! Start Month
  1,                                      ! Start Day
  12,                                     ! End Month
  31;                                     ! End Day

OS:Schedule:Rule,
  {bb77a1c2-0d74-485a-803a-4911d15df8b3}, ! Handle
  Office Bldg Light Rule 2,               ! Name
  {1b54ab4e-0ec3-4e2a-965e-3ebee9b89656}, ! Schedule Ruleset Name
  1,                                      ! Rule Order
  {4251d0d1-b6db-45a5-b629-69b0ae05f793}, ! Day Schedule Name
  No,                                     ! Apply Sunday
  No,                                     ! Apply Monday
  No,                                     ! Apply Tuesday
  No,                                     ! Apply Wednesday
  No,                                     ! Apply Thursday
  No,                                     ! Apply Friday
  Yes,                                    ! Apply Saturday
  ,                                       ! Apply Holiday
  DateRange,                              ! Date Specification Type
  1,                                      ! Start Month
  1,                                      ! Start Day
  12,                                     ! End Month
  31;                                     ! End Day

OS:Schedule:Day,
  {91650e5e-f4ce-44f1-b87e-a85073cf804d}, ! Handle
  Office Bldg Light Rule 1 Day Schedule,  ! Name
  {569cc8b7-0006-4116-a982-d9e28a05b5d4}, ! Schedule Type Limits Name
  ,                                       ! Interpolate to Timestep
  24,                                     ! Hour 1
  0,                                      ! Minute 1
  0.050000000000000003;                   ! Value Until Time 1

OS:Schedule:Day,
  {4251d0d1-b6db-45a5-b629-69b0ae05f793}, ! Handle
  Office Bldg Light Rule 2 Day Schedule,  ! Name
  {569cc8b7-0006-4116-a982-d9e28a05b5d4}, ! Schedule Type Limits Name
  ,                                       ! Interpolate to Timestep
  6,                                      ! Hour 1
  0,                                      ! Minute 1
  0.050000000000000003,                   ! Value Until Time 1
  8,                                      ! Hour 2
  0,                                      ! Minute 2
  0.10000000000000001,                    ! Value Until Time 2
  14,                                     ! Hour 3
  0,                                      ! Minute 3
  0.5,                                    ! Value Until Time 3
  17,                                     ! Hour 4
  0,                                      ! Minute 4
  0.14999999999999999,                    ! Value Until Time 4
  24,                                     ! Hour 5
  0,                                      ! Minute 5
  0.050000000000000003;                   ! Value Until Time 5

OS:Schedule:Ruleset,
  {cb31ec6a-981a-4193-9abc-057d06bc7b2f}, ! Handle
  Office Bldg Equip,                      ! Name
  {569cc8b7-0006-4116-a982-d9e28a05b5d4}, ! Schedule Type Limits Name
  {4a978289-ea73-4eba-bb67-4eec0999b0d4}, ! Default Day Schedule Name
  {21257f12-59df-4fea-a460-78dd530f5b63}, ! Summer Design Day Schedule Name
  {e10e534a-1eee-4964-96ed-c8a1e274c312}; ! Winter Design Day Schedule Name

OS:Schedule:Day,
  {4a978289-ea73-4eba-bb67-4eec0999b0d4}, ! Handle
  Office Bldg Equip Default Schedule,     ! Name
  {569cc8b7-0006-4116-a982-d9e28a05b5d4}, ! Schedule Type Limits Name
  ,                                       ! Interpolate to Timestep
  8,                                      !- Hour 1
  0,                                      !- Minute 1
  0.4,                                    !- Value Until Time 1
  12,                                     !- Hour 2
  0,                                      !- Minute 2
  0.9,                                    !- Value Until Time 2
  13,                                     !- Hour 3
  0,                                      !- Minute 3
  0.8,                                    !- Value Until Time 3
  17,                                     !- Hour 4
  0,                                      !- Minute 4
  0.9,                                    !- Value Until Time 4
  18,                                     !- Hour 5
  0,                                      !- Minute 5
  0.8,                                    !- Value Until Time 5
  20,                                     !- Hour 6
  0,                                      !- Minute 6
  0.6,                                    !- Value Until Time 6
  22,                                     !- Hour 7
  0,                                      !- Minute 7
  0.5,                                    !- Value Until Time 7
  24,                                     !- Hour 8
  0,                                      !- Minute 8
  0.4;                                    !- Value Until Time 8

OS:Schedule:Day,
  {21257f12-59df-4fea-a460-78dd530f5b63}, ! Handle
  Office Bldg Equip Summer Design Day,    ! Name
  {569cc8b7-0006-4116-a982-d9e28a05b5d4}, ! Schedule Type Limits Name
  ,                                       ! Interpolate to Timestep
  24,                                     ! Hour 1
  0,                                      ! Minute 1
  1;                                      ! Value Until Time 1

OS:Schedule:Day,
  {e10e534a-1eee-4964-96ed-c8a1e274c312}, ! Handle
  Office Bldg Equip Winter Design Day,    ! Name
  {569cc8b7-0006-4116-a982-d9e28a05b5d4}, ! Schedule Type Limits Name
  ,                                       ! Interpolate to Timestep
  24,                                     ! Hour 1
  0,                                      ! Minute 1
  0;                                      ! Value Until Time 1

OS:Schedule:Rule,
  {bb323360-a114-4305-ba96-290b6914e0b0}, ! Handle
  Office Bldg Equip Rule 1,               ! Name
  {cb31ec6a-981a-4193-9abc-057d06bc7b2f}, ! Schedule Ruleset Name
  0,                                      ! Rule Order
  {afcd5691-6479-4bf5-9508-96c1d0cd5814}, ! Day Schedule Name
  Yes,                                    ! Apply Sunday
  No,                                     ! Apply Monday
  No,                                     ! Apply Tuesday
  No,                                     ! Apply Wednesday
  No,                                     ! Apply Thursday
  No,                                     ! Apply Friday
  No,                                     ! Apply Saturday
  ,                                       ! Apply Holiday
  DateRange,                              ! Date Specification Type
  1,                                      ! Start Month
  1,                                      ! Start Day
  12,                                     ! End Month
  31;                                     ! End Day

OS:Schedule:Rule,
  {2bb4dbd4-7c64-4c4b-ab5a-1a5913b4c716}, ! Handle
  Office Bldg Equip Rule 2,               ! Name
  {cb31ec6a-981a-4193-9abc-057d06bc7b2f}, ! Schedule Ruleset Name
  1,                                      ! Rule Order
  {67d0f64a-d246-49e7-81fc-d66a1f906bc8}, ! Day Schedule Name
  No,                                     ! Apply Sunday
  No,                                     ! Apply Monday
  No,                                     ! Apply Tuesday
  No,                                     ! Apply Wednesday
  No,                                     ! Apply Thursday
  No,                                     ! Apply Friday
  Yes,                                    ! Apply Saturday
  ,                                       ! Apply Holiday
  DateRange,                              ! Date Specification Type
  1,                                      ! Start Month
  1,                                      ! Start Day
  12,                                     ! End Month
  31;                                     ! End Day

OS:Schedule:Day,
  {afcd5691-6479-4bf5-9508-96c1d0cd5814}, ! Handle
  Office Bldg Equip Rule 1 Day Schedule,  ! Name
  {569cc8b7-0006-4116-a982-d9e28a05b5d4}, ! Schedule Type Limits Name
  ,                                       ! Interpolate to Timestep
  24,                                     ! Hour 1
  0,                                      ! Minute 1
  0.29999999999999999;                    ! Value Until Time 1

OS:Schedule:Day,
  {67d0f64a-d246-49e7-81fc-d66a1f906bc8}, ! Handle
  Office Bldg Equip Rule 2 Day Schedule,  ! Name
  {569cc8b7-0006-4116-a982-d9e28a05b5d4}, ! Schedule Type Limits Name
  ,                                       ! Interpolate to Timestep
  6,                                      ! Hour 1
  0,                                      ! Minute 1
  0.29999999999999999,                    ! Value Until Time 1
  8,                                      ! Hour 2
  0,                                      ! Minute 2
  0.40000000000000002,                    ! Value Until Time 2
  14,                                     ! Hour 3
  0,                                      ! Minute 3
  0.5,                                    ! Value Until Time 3
  17,                                     ! Hour 4
  0,                                      ! Minute 4
  0.34999999999999998,                    ! Value Until Time 4
  24,                                     ! Hour 5
  0,                                      ! Minute 5
  0.29999999999999999;                    ! Value Until Time 5

OS:Schedule:Ruleset,
  {bd1ef4b0-cc63-46a0-ad72-33674311c257}, ! Handle
  Office Infil Quarter On,                ! Name
  {569cc8b7-0006-4116-a982-d9e28a05b5d4}, ! Schedule Type Limits Name
  {531b59c0-fb8c-4fdf-902a-e095ee743461}, ! Default Day Schedule Name
  {fa0f42a0-23fb-4e04-a923-be2526279dbe}, ! Summer Design Day Schedule Name
  {7924fd81-cd26-4dcc-b7ff-b9cf2cea6490}; ! Winter Design Day Schedule Name

OS:Schedule:Day,
  {531b59c0-fb8c-4fdf-902a-e095ee743461}, ! Handle
  Office Infil Quarter On Default Schedule, ! Name
  {569cc8b7-0006-4116-a982-d9e28a05b5d4}, ! Schedule Type Limits Name
  ,                                       ! Interpolate to Timestep
  6,                                      !- Hour 1
  0,                                      !- Minute 1
  1,                                      !- Value Until Time 1
  22,                                     !- Hour 2
  0,                                      !- Minute 2
  0.25,                                   !- Value Until Time 2
  24,                                     !- Hour 3
  0,                                      !- Minute 3
  1;                                      !- Value Until Time 3

OS:Schedule:Day,
  {fa0f42a0-23fb-4e04-a923-be2526279dbe}, ! Handle
  Office Infil Quarter On Summer Design Day, ! Name
  {569cc8b7-0006-4116-a982-d9e28a05b5d4}, ! Schedule Type Limits Name
  ,                                       ! Interpolate to Timestep
  6,                                      ! Hour 1
  0,                                      ! Minute 1
  1,                                      ! Value Until Time 1
  22,                                     ! Hour 2
  0,                                      ! Minute 2
  0.25,                                   ! Value Until Time 2
  24,                                     ! Hour 3
  0,                                      ! Minute 3
  1;                                      ! Value Until Time 3

OS:Schedule:Day,
  {7924fd81-cd26-4dcc-b7ff-b9cf2cea6490}, ! Handle
  Office Infil Quarter On Winter Design Day, ! Name
  {569cc8b7-0006-4116-a982-d9e28a05b5d4}, ! Schedule Type Limits Name
  ,                                       ! Interpolate to Timestep
  6,                                      ! Hour 1
  0,                                      ! Minute 1
  1,                                      ! Value Until Time 1
  18,                                     ! Hour 2
  0,                                      ! Minute 2
  0.25,                                   ! Value Until Time 2
  24,                                     ! Hour 3
  0,                                      ! Minute 3
  1;                                      ! Value Until Time 3

OS:Schedule:Rule,
  {aff76e3a-5c9e-43e8-ae68-e5f5aef0486b}, ! Handle
  Office Infil Quarter On Rule 1,         ! Name
  {bd1ef4b0-cc63-46a0-ad72-33674311c257}, ! Schedule Ruleset Name
  0,                                      ! Rule Order
  {0e25e8e3-9dae-4bd3-827d-0584cd103480}, ! Day Schedule Name
  Yes,                                    ! Apply Sunday
  No,                                     ! Apply Monday
  No,                                     ! Apply Tuesday
  No,                                     ! Apply Wednesday
  No,                                     ! Apply Thursday
  No,                                     ! Apply Friday
  No,                                     ! Apply Saturday
  ,                                       ! Apply Holiday
  DateRange,                              ! Date Specification Type
  1,                                      ! Start Month
  1,                                      ! Start Day
  12,                                     ! End Month
  31;                                     ! End Day

OS:Schedule:Rule,
  {0fe62864-d5cb-4cdf-8507-09b692ce0623}, ! Handle
  Office Infil Quarter On Rule 2,         ! Name
  {bd1ef4b0-cc63-46a0-ad72-33674311c257}, ! Schedule Ruleset Name
  1,                                      ! Rule Order
  {0588c309-f596-43e6-94ef-e0893b9aa3ca}, ! Day Schedule Name
  No,                                     ! Apply Sunday
  No,                                     ! Apply Monday
  No,                                     ! Apply Tuesday
  No,                                     ! Apply Wednesday
  No,                                     ! Apply Thursday
  No,                                     ! Apply Friday
  Yes,                                    ! Apply Saturday
  ,                                       ! Apply Holiday
  DateRange,                              ! Date Specification Type
  1,                                      ! Start Month
  1,                                      ! Start Day
  12,                                     ! End Month
  31;                                     ! End Day

OS:Schedule:Day,
  {0e25e8e3-9dae-4bd3-827d-0584cd103480}, ! Handle
  Office Infil Quarter On Rule 1 Day Schedule, ! Name
  {569cc8b7-0006-4116-a982-d9e28a05b5d4}, ! Schedule Type Limits Name
  ,                                       ! Interpolate to Timestep
  24,                                     ! Hour 1
  0,                                      ! Minute 1
  1;                                      ! Value Until Time 1

OS:Schedule:Day,
  {0588c309-f596-43e6-94ef-e0893b9aa3ca}, ! Handle
  Office Infil Quarter On Rule 2 Day Schedule, ! Name
  {569cc8b7-0006-4116-a982-d9e28a05b5d4}, ! Schedule Type Limits Name
  ,                                       ! Interpolate to Timestep
  6,                                      ! Hour 1
  0,                                      ! Minute 1
  1,                                      ! Value Until Time 1
  18,                                     ! Hour 2
  0,                                      ! Minute 2
  0.25,                                   ! Value Until Time 2
  24,                                     ! Hour 3
  0,                                      ! Minute 3
  1;                                      ! Value Until Time 3

OS:ScheduleTypeLimits,
  {569cc8b7-0006-4116-a982-d9e28a05b5d4}, ! Handle
  Fraction,                               ! Name