
OS:Version,
  {4b1be12b-0fab-4c23-bb3d-755c875a5b8d}, !- Handle
  1.9.0;                                  !- Version Identifier

OS:Facility,
  {c9cc5f4c-8695-4974-b057-eb0f3d7c1a74}; !- Handle

OS:Building,
  {29b818dc-525d-466e-89fd-32ce70ce53ce}, !- Handle
  Building 1,                             !- Name
  ,                                       !- Building Sector Type
  ,                                       !- North Axis {deg}
  ,                                       !- Nominal Floor to Floor Height {m}
  ,                                       !- Space Type Name
  ,                                       !- Default Construction Set Name
  ;                                       !- Default Schedule Set Name

OS:BuildingStory,
  {4d532cbf-736c-426e-8c1f-e2c6544b7176}, !- Handle
  Level 1,                                !- Name
  ,                                       !- Nominal Z Coordinate {m}
  ,                                       !- Nominal Floor to Floor Height {m}
  ,                                       !- Default Construction Set Name
  ,                                       !- Default Schedule Set Name
  ;                                       !- Group Rendering Name

OS:BuildingStory,
  {fd556aeb-8101-48a5-b8d6-29b656377ff5}, !- Handle
  Level 2,                                !- Name
  ,                                       !- Nominal Z Coordinate {m}
  3.048,                                  !- Nominal Floor to Floor Height {m}
  ,                                       !- Default Construction Set Name
  ,                                       !- Default Schedule Set Name
  ;                                       !- Group Rendering Name

OS:BuildingStory,
  {1127cbbf-f23e-41b3-ab6a-f52590e44223}, !- Handle
  Roof Level,                             !- Name
  ,                                       !- Nominal Z Coordinate {m}
  9.144,                                  !- Nominal Floor to Floor Height {m}
  ,                                       !- Default Construction Set Name
  ,                                       !- Default Schedule Set Name
  ;                                       !- Group Rendering Name

OS:Space,
  {c45523ad-9cfd-49c0-954f-18ad217eb8bc}, !- Handle
  sp-1-Occupied_Auditorium,               !- Name
  ,                                       !- Space Type Name
  ,                                       !- Default Construction Set Name
  ,                                       !- Default Schedule Set Name
  ,                                       !- Direction of Relative North {deg}
  ,                                       !- X Origin {m}
  ,                                       !- Y Origin {m}
  ,                                       !- Z Origin {m}
  {4d532cbf-736c-426e-8c1f-e2c6544b7176}, !- Building Story Name
  {3506c7af-4635-415f-a1e8-0fe439c70820}; !- Thermal Zone Name

OS:Surface,
  {006516cf-d385-4b1a-8572-1bf1d2aa8cfd}, !- Handle
  Surface 1,                              !- Name
  Wall,                                   !- Surface Type
  ,                                       !- Construction Name
  {c45523ad-9cfd-49c0-954f-18ad217eb8bc}, !- Space Name
  Outdoors,                               !- Outside Boundary Condition
  ,                                       !- Outside Boundary Condition Object
  SunExposed,                             !- Sun Exposure
  WindExposed,                            !- Wind Exposure
  ,                                       !- View Factor to Ground
  ,                                       !- Number of Vertices
  0, 0, -3.048,                           !- X,Y,Z Vertex 1 {m}
  0, 18.288, -3.048,                      !- X,Y,Z Vertex 2 {m}
  30.48, 18.288, 0,                       !- X,Y,Z Vertex 3 {m}
  30.48, 0, 0;                            !- X,Y,Z Vertex 4 {m}

OS:Surface,
  {593e5adb-bef0-445a-b6d5-c5095ee456cc}, !- Handle
  Surface 2,                              !- Name
  Wall,                                   !- Surface Type
  ,                                       !- Construction Name
  {c45523ad-9cfd-49c0-954f-18ad217eb8bc}, !- Space Name
  Ground,                                 !- Outside Boundary Condition
  ,                                       !- Outside Boundary Condition Object
  NoSun,                                  !- Sun Exposure
  NoWind,                                 !- Wind Exposure
  ,                                       !- View Factor to Ground
  ,                                       !- Number of Vertices
  0, 0, -3.048,                           !- X,Y,Z Vertex 1 {m}
  0, 0, 0,                                !- X,Y,Z Vertex 2 {m}
  0, 18.288, 0,                           !- X,Y,Z Vertex 3 {m}
  0, 18.288, -3.048;                      !- X,Y,Z Vertex 4 {m}

OS:Surface,
  {c82efb87-d27f-4a92-98fe-8217a750737f}, !- Handle
  Surface 3,                              !- Name
  Wall,                                   !- Surface Type
  ,                                       !- Construction Name
  {c45523ad-9cfd-49c0-954f-18ad217eb8bc}, !- Space Name
  Outdoors,                               !- Outside Boundary Condition
  ,                                       !- Outside Boundary Condition Object
  SunExposed,                             !- Sun Exposure
  WindExposed,                            !- Wind Exposure
  ,                                       !- View Factor to Ground
  ,                                       !- Number of Vertices
  0, 0, 0,                                !- X,Y,Z Vertex 1 {m}
  0, 0, 3.048,                            !- X,Y,Z Vertex 2 {m}
  0, 18.288, 3.048,                       !- X,Y,Z Vertex 3 {m}
  0, 18.288, 0;                           !- X,Y,Z Vertex 4 {m}

OS:Surface,
  {f6d5e148-eddf-4418-aaab-6cb38c8a8f0d}, !- Handle
  Surface 4,                              !- Name
  Wall,                                   !- Surface Type
  ,                                       !- Construction Name
  {c45523ad-9cfd-49c0-954f-18ad217eb8bc}, !- Space Name
  Ground,                                 !- Outside Boundary Condition
  ,                                       !- Outside Boundary Condition Object
  NoSun,                                  !- Sun Exposure
  NoWind,                                 !- Wind Exposure
  ,                                       !- View Factor to Ground
  ,                                       !- Number of Vertices
  0, 0, 0,                                !- X,Y,Z Vertex 1 {m}
  30.48, 0, 0,                            !- X,Y,Z Vertex 2 {m}
  30.48, 0, 3.048,                        !- X,Y,Z Vertex 3 {m}
  0, 0, 3.048;                            !- X,Y,Z Vertex 4 {m}

OS:Surface,
  {dc20743d-a978-4ec5-8786-7edf32a3f594}, !- Handle
  Surface 5,                              !- Name
  Wall,                                   !- Surface Type
  ,                                       !- Construction Name
  {c45523ad-9cfd-49c0-954f-18ad217eb8bc}, !- Space Name
  Outdoors,                               !- Outside Boundary Condition
  ,                                       !- Outside Boundary Condition Object
  SunExposed,                             !- Sun Exposure
  WindExposed,                            !- Wind Exposure
  ,                                       !- View Factor to Ground
  ,                                       !- Number of Vertices
  0, 0, -3.048,                           !- X,Y,Z Vertex 1 {m}
  30.48, 0, 0,                            !- X,Y,Z Vertex 2 {m}
  0, 0, 0;                                !- X,Y,Z Vertex 3 {m}

OS:Surface,
  {b53d615d-b41e-4c86-8c35-a802d819ce8f}, !- Handle
  Surface 6,                              !- Name
  Wall,                                   !- Surface Type
  ,                                       !- Construction Name
  {c45523ad-9cfd-49c0-954f-18ad217eb8bc}, !- Space Name
  Outdoors,                               !- Outside Boundary Condition
  ,                                       !- Outside Boundary Condition Object
  SunExposed,                             !- Sun Exposure
  WindExposed,                            !- Wind Exposure
  ,                                       !- View Factor to Ground
  ,                                       !- Number of Vertices
  30.48, 0, 0,                            !- X,Y,Z Vertex 1 {m}
  30.48, 18.288, 0,                       !- X,Y,Z Vertex 2 {m}
  30.48, 18.288, 3.048,                   !- X,Y,Z Vertex 3 {m}
  30.48, 0, 3.048;                        !- X,Y,Z Vertex 4 {m}

OS:Surface,
  {87b6487b-1024-4670-92ba-fbbdf0d2bade}, !- Handle
  Surface 7,                              !- Name
  Wall,                                   !- Surface Type
  ,                                       !- Construction Name
  {c45523ad-9cfd-49c0-954f-18ad217eb8bc}, !- Space Name
  Outdoors,                               !- Outside Boundary Condition
  ,                                       !- Outside Boundary Condition Object
  SunExposed,                             !- Sun Exposure
  WindExposed,                            !- Wind Exposure
  ,                                       !- View Factor to Ground
  ,                                       !- Number of Vertices
  30.48, 18.288, 0,                       !- X,Y,Z Vertex 1 {m}
  0, 18.288, 0,                           !- X,Y,Z Vertex 2 {m}
  0, 18.288, 3.048,                       !- X,Y,Z Vertex 3 {m}
  30.48, 18.288, 3.048;                   !- X,Y,Z Vertex 4 {m}

OS:Surface,
  {07fd9ef5-b85e-4217-9c69-9904dc8b9548}, !- Handle
  Surface 8,                              !- Name
  Wall,                                   !- Surface Type
  ,                                       !- Construction Name
  {c45523ad-9cfd-49c0-954f-18ad217eb8bc}, !- Space Name
  Ground,                                 !- Outside Boundary Condition
  ,                                       !- Outside Boundary Condition Object
  NoSun,                                  !- Sun Exposure
  NoWind,                                 !- Wind Exposure
  ,                                       !- View Factor to Ground
  ,                                       !- Number of Vertices
  30.48, 18.288, 0,                       !- X,Y,Z Vertex 1 {m}
  0, 18.288, -3.048,                      !- X,Y,Z Vertex 2 {m}
  0, 18.288, 0;                           !- X,Y,Z Vertex 3 {m}

OS:Surface,
  {bd120275-160f-4506-8b61-2330d98d873f}, !- Handle
  Surface 9,                              !- Name
  RoofCeiling,                            !- Surface Type
  ,                                       !- Construction Name
  {c45523ad-9cfd-49c0-954f-18ad217eb8bc}, !- Space Name
  Surface,                                !- Outside Boundary Condition
  {37a997af-25ce-4dc6-9ac5-9490da48c6f1}, !- Outside Boundary Condition Object
  NoSun,                                  !- Sun Exposure
  NoWind,                                 !- Wind Exposure
  ,                                       !- View Factor to Ground
  ,                                       !- Number of Vertices
  0, 0, 3.048,                            !- X,Y,Z Vertex 1 {m}
  30.48, 0, 3.048,                        !- X,Y,Z Vertex 2 {m}
  30.48, 18.288, 3.048,                   !- X,Y,Z Vertex 3 {m}
  0, 18.288, 3.048;                       !- X,Y,Z Vertex 4 {m}

OS:Space,
  {6333b118-0e6b-454b-91be-fe21ae90702c}, !- Handle
  sp-2-Unoccupied_Auditorium,             !- Name
  ,                                       !- Space Type Name
  ,                                       !- Default Construction Set Name
  ,                                       !- Default Schedule Set Name
  ,                                       !- Direction of Relative North {deg}
  ,                                       !- X Origin {m}
  ,                                       !- Y Origin {m}
  ,                                       !- Z Origin {m}
  {fd556aeb-8101-48a5-b8d6-29b656377ff5}, !- Building Story Name
  {f42737b2-33d7-487e-b999-e5183f0e2420}; !- Thermal Zone Name

OS:Surface,
  {37a997af-25ce-4dc6-9ac5-9490da48c6f1}, !- Handle
  Surface 10,                             !- Name
  Floor,                                  !- Surface Type
  ,                                       !- Construction Name
  {6333b118-0e6b-454b-91be-fe21ae90702c}, !- Space Name
  Surface,                                !- Outside Boundary Condition
  {bd120275-160f-4506-8b61-2330d98d873f}, !- Outside Boundary Condition Object
  NoSun,                                  !- Sun Exposure
  NoWind,                                 !- Wind Exposure
  ,                                       !- View Factor to Ground
  ,                                       !- Number of Vertices
  0, 0, 3.048,                            !- X,Y,Z Vertex 1 {m}
  0, 18.288, 3.048,                       !- X,Y,Z Vertex 2 {m}
  30.48, 18.288, 3.048,                   !- X,Y,Z Vertex 3 {m}
  30.48, 0, 3.048;                        !- X,Y,Z Vertex 4 {m}

OS:Surface,
  {26a37d0f-deb2-4b09-af48-2ee6e3a9e37e}, !- Handle
  Surface 11,                             !- Name
  Wall,                                   !- Surface Type
  ,                                       !- Construction Name
  {6333b118-0e6b-454b-91be-fe21ae90702c}, !- Space Name
  Outdoors,                               !- Outside Boundary Condition
  ,                                       !- Outside Boundary Condition Object
  SunExposed,                             !- Sun Exposure
  WindExposed,                            !- Wind Exposure
  ,                                       !- View Factor to Ground
  ,                                       !- Number of Vertices
  0, 0, 3.048,                            !- X,Y,Z Vertex 1 {m}
  0, 0, 9.144,                            !- X,Y,Z Vertex 2 {m}
  0, 18.288, 9.144,                       !- X,Y,Z Vertex 3 {m}
  0, 18.288, 3.048;                       !- X,Y,Z Vertex 4 {m}

OS:Surface,
  {5e7bf88d-484a-4804-8995-558fc2e38219}, !- Handle
  Surface 12,                             !- Name
  Wall,                                   !- Surface Type
  ,                                       !- Construction Name
  {6333b118-0e6b-454b-91be-fe21ae90702c}, !- Space Name
  Outdoors,                               !- Outside Boundary Condition
  ,                                       !- Outside Boundary Condition Object
  SunExposed,                             !- Sun Exposure
  WindExposed,                            !- Wind Exposure
  ,                                       !- View Factor to Ground
  ,                                       !- Number of Vertices
  0, 0, 3.048,                            !- X,Y,Z Vertex 1 {m}
  30.48, 0, 3.048,                        !- X,Y,Z Vertex 2 {m}
  30.48, 0, 9.144,                        !- X,Y,Z Vertex 3 {m}
  0, 0, 9.144;                            !- X,Y,Z Vertex 4 {m}

OS:Surface,
  {484f20ee-43e3-4f7b-92f8-4153333a8cf6}, !- Handle
  Surface 13,                             !- Name
  Wall,                                   !- Surface Type
  ,                                       !- Construction Name
  {6333b118-0e6b-454b-91be-fe21ae90702c}, !- Space Name
  Outdoors,                               !- Outside Boundary Condition
  ,                                       !- Outside Boundary Condition Object
  SunExposed,                             !- Sun Exposure
  WindExposed,                            !- Wind Exposure
  ,                                       !- View Factor to Ground
  ,                                       !- Number of Vertices
  30.48, 0, 3.048,                        !- X,Y,Z Vertex 1 {m}
  30.48, 18.288, 3.048,                   !- X,Y,Z Vertex 2 {m}
  30.48, 18.288, 9.144,                   !- X,Y,Z Vertex 3 {m}
  30.48, 0, 9.144;                        !- X,Y,Z Vertex 4 {m}

OS:Surface,
  {ff3ccf7a-2d99-4f6f-a698-f2ff1fcfaee7}, !- Handle
  Surface 14,                             !- Name
  Wall,                                   !- Surface Type
  ,                                       !- Construction Name
  {c45523ad-9cfd-49c0-954f-18ad217eb8bc}, !- Space Name
  Outdoors,                               !- Outside Boundary Condition
  ,                                       !- Outside Boundary Condition Object
  SunExposed,                             !- Sun Exposure
  WindExposed,                            !- Wind Exposure
  ,                                       !- View Factor to Ground
  ,                                       !- Number of Vertices
  30.48, 18.288, 3.048,                   !- X,Y,Z Vertex 1 {m}
  0, 18.288, 3.048,                       !- X,Y,Z Vertex 2 {m}
  0, 18.288, 9.144,                       !- X,Y,Z Vertex 3 {m}
  30.48, 18.288, 9.144;                   !- X,Y,Z Vertex 4 {m}

OS:Surface,
  {fb95e64d-89d7-456e-b788-c14994c906f7}, !- Handle
  Surface 15,                             !- Name
  RoofCeiling,                            !- Surface Type
  ,                                       !- Construction Name
  {6333b118-0e6b-454b-91be-fe21ae90702c}, !- Space Name
  Surface,                                !- Outside Boundary Condition
  {54bcd6c4-9ad8-4a21-b8b9-89bddd254de8}, !- Outside Boundary Condition Object
  NoSun,                                  !- Sun Exposure
  NoWind,                                 !- Wind Exposure
  ,                                       !- View Factor to Ground
  ,                                       !- Number of Vertices
  0, 0, 9.144,                            !- X,Y,Z Vertex 1 {m}
  30.48, 0, 9.144,                        !- X,Y,Z Vertex 2 {m}
  30.48, 18.288, 9.144,                   !- X,Y,Z Vertex 3 {m}
  0, 18.288, 9.144;                       !- X,Y,Z Vertex 4 {m}

OS:Space,
  {779e644c-1a6a-4cee-a7ff-28081aef26ad}, !- Handle
  sp-3-Roof_Void,                         !- Name
  ,                                       !- Space Type Name
  ,                                       !- Default Construction Set Name
  ,                                       !- Default Schedule Set Name
  ,                                       !- Direction of Relative North {deg}
  ,                                       !- X Origin {m}
  ,                                       !- Y Origin {m}
  ,                                       !- Z Origin {m}
  {fd556aeb-8101-48a5-b8d6-29b656377ff5}, !- Building Story Name
  {7dfa367b-6ec4-4c43-b06d-d83f5323067c}; !- Thermal Zone Name

OS:Surface,
  {54bcd6c4-9ad8-4a21-b8b9-89bddd254de8}, !- Handle
  Surface 16,                             !- Name
  Floor,                                  !- Surface Type
  ,                                       !- Construction Name
  {779e644c-1a6a-4cee-a7ff-28081aef26ad}, !- Space Name
  Surface,                                !- Outside Boundary Condition
  {fb95e64d-89d7-456e-b788-c14994c906f7}, !- Outside Boundary Condition Object
  NoSun,                                  !- Sun Exposure
  NoWind,                                 !- Wind Exposure
  ,                                       !- View Factor to Ground
  ,                                       !- Number of Vertices
  0, 0, 9.144,                            !- X,Y,Z Vertex 1 {m}
  0, 18.288, 9.144,                       !- X,Y,Z Vertex 2 {m}
  30.48, 18.288, 9.144,                   !- X,Y,Z Vertex 3 {m}
  30.48, 0, 9.144;                        !- X,Y,Z Vertex 4 {m}

OS:Surface,
  {64dfab54-768b-4c5c-8eaf-c554eb296008}, !- Handle
  Surface 17,                             !- Name
  Wall,                                   !- Surface Type
  ,                                       !- Construction Name
  {779e644c-1a6a-4cee-a7ff-28081aef26ad}, !- Space Name
  Outdoors,                               !- Outside Boundary Condition
  ,                                       !- Outside Boundary Condition Object
  SunExposed,                             !- Sun Exposure
  WindExposed,                            !- Wind Exposure
  ,                                       !- View Factor to Ground
  ,                                       !- Number of Vertices
  0, 0, 9.144,                            !- X,Y,Z Vertex 1 {m}
  30.48, 0, 9.144,                        !- X,Y,Z Vertex 2 {m}
  8.6868, 0, 13.716;                      !- X,Y,Z Vertex 3 {m}

OS:Surface,
  {26dc4eec-9559-4ba1-a2bd-bcab230d0e86}, !- Handle
  Surface 18,                             !- Name
  Wall,                                   !- Surface Type
  ,                                       !- Construction Name
  {779e644c-1a6a-4cee-a7ff-28081aef26ad}, !- Space Name
  Outdoors,                               !- Outside Boundary Condition
  ,                                       !- Outside Boundary Condition Object
  SunExposed,                             !- Sun Exposure
  WindExposed,                            !- Wind Exposure
  ,                                       !- View Factor to Ground
  ,                                       !- Number of Vertices
  30.48, 18.288, 9.144,                   !- X,Y,Z Vertex 1 {m}
  0, 18.288, 9.144,                       !- X,Y,Z Vertex 2 {m}
  8.6868, 18.288, 13.716;                 !- X,Y,Z Vertex 3 {m}

OS:Surface,
  {d973b1f0-f553-4518-9543-00d423872a71}, !- Handle
  Surface 19,                             !- Name
  RoofCeiling,                            !- Surface Type
  ,                                       !- Construction Name
  {779e644c-1a6a-4cee-a7ff-28081aef26ad}, !- Space Name
  Outdoors,                               !- Outside Boundary Condition
  ,                                       !- Outside Boundary Condition Object
  SunExposed,                             !- Sun Exposure
  WindExposed,                            !- Wind Exposure
  ,                                       !- View Factor to Ground
  ,                                       !- Number of Vertices
  0, 0, 9.144,                            !- X,Y,Z Vertex 1 {m}
  8.6868, 0, 13.716,                      !- X,Y,Z Vertex 2 {m}
  8.6868, 18.288, 13.716,                 !- X,Y,Z Vertex 3 {m}
  0, 18.288, 9.144;                       !- X,Y,Z Vertex 4 {m}

OS:Surface,
  {014d52b6-a5e9-4fa8-8291-c6110b731418}, !- Handle
  Surface 20,                             !- Name
  RoofCeiling,                            !- Surface Type
  ,                                       !- Construction Name
  {779e644c-1a6a-4cee-a7ff-28081aef26ad}, !- Space Name
  Outdoors,                               !- Outside Boundary Condition
  ,                                       !- Outside Boundary Condition Object
  SunExposed,                             !- Sun Exposure
  WindExposed,                            !- Wind Exposure
  ,                                       !- View Factor to Ground
  ,                                       !- Number of Vertices
  8.6868, 0, 13.716,                      !- X,Y,Z Vertex 1 {m}
  30.48, 0, 9.144,                        !- X,Y,Z Vertex 2 {m}
  30.48, 18.288, 9.144,                   !- X,Y,Z Vertex 3 {m}
  8.6868, 18.288, 13.716;                 !- X,Y,Z Vertex 4 {m}

OS:ThermalZone,
  {f42737b2-33d7-487e-b999-e5183f0e2420}, !- Handle
  sp-2-Unoccupied_Auditorium,             !- Name
  ,                                       !- Multiplier
  ,                                       !- Ceiling Height {m}
  ,                                       !- Volume {m3}
  ,                                       !- Floor Area {m2}
  ,                                       !- Zone Inside Convection Algorithm
  ,                                       !- Zone Outside Convection Algorithm
  ,                                       !- Zone Conditioning Equipment List Name
  {540dd8e3-6edb-4fe2-bb54-3c15d8e361f7}, !- Zone Air Inlet Port List
  {af3314c7-45e6-44c6-959b-d8a2427a2d09}, !- Zone Air Exhaust Port List
  {1b4f4cf3-fb0c-42fb-a558-c355a825aafe}, !- Zone Air Node Name
  ,                                       !- Zone Return Air Node Name
  ,                                       !- Primary Daylighting Control Name
  ,                                       !- Fraction of Zone Controlled by Primary Daylighting Control
  ,                                       !- Secondary Daylighting Control Name
  ,                                       !- Fraction of Zone Controlled by Secondary Daylighting Control
  ,                                       !- Illuminance Map Name
  ,                                       !- Group Rendering Name
  ,                                       !- Thermostat Name
  No;                                     !- Use Ideal Air Loads

OS:Node,
  {c82d4460-7e25-4b3a-8cb1-1442221dea0d}, !- Handle
  Node 1,                                 !- Name
  {1b4f4cf3-fb0c-42fb-a558-c355a825aafe}, !- Inlet Port
  ;                                       !- Outlet Port

OS:Connection,
  {1b4f4cf3-fb0c-42fb-a558-c355a825aafe}, !- Handle
  {4be6afe0-ce34-4af8-ac46-fd625b4889c3}, !- Name
  {f42737b2-33d7-487e-b999-e5183f0e2420}, !- Source Object
  11,                                     !- Outlet Port
  {c82d4460-7e25-4b3a-8cb1-1442221dea0d}, !- Target Object
  2;                                      !- Inlet Port

OS:PortList,
  {540dd8e3-6edb-4fe2-bb54-3c15d8e361f7}, !- Handle
  Port List 1,                            !- Name
  {f42737b2-33d7-487e-b999-e5183f0e2420}; !- HVAC Component

OS:PortList,
  {af3314c7-45e6-44c6-959b-d8a2427a2d09}, !- Handle
  Port List 2,                            !- Name
  {f42737b2-33d7-487e-b999-e5183f0e2420}; !- HVAC Component

OS:Sizing:Zone,
  {9095b81f-d93f-49f9-af65-4c6d1bd1c931}, !- Handle
  {f42737b2-33d7-487e-b999-e5183f0e2420}, !- Zone or ZoneList Name
  14,                                     !- Zone Cooling Design Supply Air Temperature {C}
  40,                                     !- Zone Heating Design Supply Air Temperature {C}
  0.0085,                                 !- Zone Cooling Design Supply Air Humidity Ratio {kg-H2O/kg-air}
  0.008,                                  !- Zone Heating Design Supply Air Humidity Ratio {kg-H2O/kg-air}
  ,                                       !- Zone Heating Sizing Factor
  ,                                       !- Zone Cooling Sizing Factor
  DesignDay,                              !- Cooling Design Air Flow Method
  ,                                       !- Cooling Design Air Flow Rate {m3/s}
  ,                                       !- Cooling Minimum Air Flow per Zone Floor Area {m3/s-m2}
  ,                                       !- Cooling Minimum Air Flow {m3/s}
  ,                                       !- Cooling Minimum Air Flow Fraction
  DesignDay,                              !- Heating Design Air Flow Method
  ,                                       !- Heating Design Air Flow Rate {m3/s}
  ,                                       !- Heating Maximum Air Flow per Zone Floor Area {m3/s-m2}
  ,                                       !- Heating Maximum Air Flow {m3/s}
  ,                                       !- Heating Maximum Air Flow Fraction
  ,                                       !- Design Zone Air Distribution Effectiveness in Cooling Mode
  ;                                       !- Design Zone Air Distribution Effectiveness in Heating Mode

OS:ZoneHVAC:EquipmentList,
  {a42a9f73-4bdb-4732-a932-193a2581b19b}, !- Handle
  Zone HVAC Equipment List 1,             !- Name
  {f42737b2-33d7-487e-b999-e5183f0e2420}; !- Thermal Zone

OS:ThermalZone,
  {7dfa367b-6ec4-4c43-b06d-d83f5323067c}, !- Handle
  sp-3-Roof_Void,                         !- Name
  ,                                       !- Multiplier
  ,                                       !- Ceiling Height {m}
  ,                                       !- Volume {m3}
  ,                                       !- Floor Area {m2}
  ,                                       !- Zone Inside Convection Algorithm
  ,                                       !- Zone Outside Convection Algorithm
  ,                                       !- Zone Conditioning Equipment List Name
  {d441c604-c431-4446-9f35-18b30750feb6}, !- Zone Air Inlet Port List
  {650ef48e-9744-416a-b20d-b367959306c8}, !- Zone Air Exhaust Port List
  {cc04377a-df82-4848-8ca3-7550ec0118f1}, !- Zone Air Node Name
  ,                                       !- Zone Return Air Node Name
  ,                                       !- Primary Daylighting Control Name
  ,                                       !- Fraction of Zone Controlled by Primary Daylighting Control
  ,                                       !- Secondary Daylighting Control Name
  ,                                       !- Fraction of Zone Controlled by Secondary Daylighting Control
  ,                                       !- Illuminance Map Name
  ,                                       !- Group Rendering Name
  ,                                       !- Thermostat Name
  No;                                     !- Use Ideal Air Loads

OS:Node,
  {d6107ba2-3fc4-4709-ac3a-65e315a283d9}, !- Handle
  Node 2,                                 !- Name
  {cc04377a-df82-4848-8ca3-7550ec0118f1}, !- Inlet Port
  ;                                       !- Outlet Port

OS:Connection,
  {cc04377a-df82-4848-8ca3-7550ec0118f1}, !- Handle
  {271e514a-80c6-4bd3-b19c-c198d48ed358}, !- Name
  {7dfa367b-6ec4-4c43-b06d-d83f5323067c}, !- Source Object
  11,                                     !- Outlet Port
  {d6107ba2-3fc4-4709-ac3a-65e315a283d9}, !- Target Object
  2;                                      !- Inlet Port

OS:PortList,
  {d441c604-c431-4446-9f35-18b30750feb6}, !- Handle
  Port List 3,                            !- Name
  {7dfa367b-6ec4-4c43-b06d-d83f5323067c}; !- HVAC Component

OS:PortList,
  {650ef48e-9744-416a-b20d-b367959306c8}, !- Handle
  Port List 4,                            !- Name
  {7dfa367b-6ec4-4c43-b06d-d83f5323067c}; !- HVAC Component

OS:Sizing:Zone,
  {6dbb3af7-9ed0-4b2c-9252-b062b3c22a9a}, !- Handle
  {7dfa367b-6ec4-4c43-b06d-d83f5323067c}, !- Zone or ZoneList Name
  14,                                     !- Zone Cooling Design Supply Air Temperature {C}