
OS:Version,
  {4e5d551c-81ba-4acc-afc7-14e77ff8a01e}, !- Handle
  1.10.0;                                 !- Version Identifier

OS:Facility,
  {05655b09-518f-4493-9063-e45c37e386fc}; !- Handle

OS:Building,
  {98ef0cd4-d442-40f0-a7b4-eeca697987fc}, !- Handle
  Building 1,                             !- Name
  ,                                       !- Building Sector Type
  ,                                       !- North Axis {deg}
  ,                                       !- Nominal Floor to Floor Height {m}
  ,                                       !- Space Type Name
  ,                                       !- Default Construction Set Name
  ;                                       !- Default Schedule Set Name

OS:BuildingStory,
  {6591f8c9-cfb9-45b3-a456-d7c058a39584}, !- Handle
  Level 1,                                !- Name
  ,                                       !- Nominal Z Coordinate {m}
  ,                                       !- Nominal Floor to Floor Height {m}
  ,                                       !- Default Construction Set Name
  ,                                       !- Default Schedule Set Name
  ;                                       !- Group Rendering Name

OS:BuildingStory,
  {685f1c9f-bcdc-4372-9457-2724c64711ba}, !- Handle
  Level 2,                                !- Name
  ,                                       !- Nominal Z Coordinate {m}
  3.048,                                  !- Nominal Floor to Floor Height {m}
  ,                                       !- Default Construction Set Name
  ,                                       !- Default Schedule Set Name
  ;                                       !- Group Rendering Name

OS:BuildingStory,
  {463917d8-6e6a-4a0e-ba81-16f36e06372a}, !- Handle
  Roof Level,                             !- Name
  ,                                       !- Nominal Z Coordinate {m}
  9.144,                                  !- Nominal Floor to Floor Height {m}
  ,                                       !- Default Construction Set Name
  ,                                       !- Default Schedule Set Name
  ;                                       !- Group Rendering Name

OS:Space,
  {284c0258-d466-4e54-bcdd-08399d87c0a3}, !- Handle
  sp-1-Occupied_Auditorium,               !- Name
  ,                                       !- Space Type Name
  ,                                       !- Default Construction Set Name
  ,                                       !- Default Schedule Set Name
  ,                                       !- Direction of Relative North {deg}
  ,                                       !- X Origin {m}
  ,                                       !- Y Origin {m}
  ,                                       !- Z Origin {m}
  {6591f8c9-cfb9-45b3-a456-d7c058a39584}, !- Building Story Name
  {b19e516b-c729-4a39-9207-2f62359cb44b}; !- Thermal Zone Name

OS:Surface,
  {2cbfbb85-c20f-4bf0-bbb3-50b1b55aa984}, !- Handle
  Surface 1,                              !- Name
  Wall,                                   !- Surface Type
  ,                                       !- Construction Name
  {284c0258-d466-4e54-bcdd-08399d87c0a3}, !- Space Name
  Outdoors,                               !- Outside Boundary Condition
  ,                                       !- Outside Boundary Condition Object
  SunExposed,                             !- Sun Exposure
  WindExposed,                            !- Wind Exposure
  ,                                       !- View Factor to Ground
  ,                                       !- Number of Vertices
  0, 0, -3.048,                           !- X,Y,Z Vertex 1 {m}
  0, 18.288, -3.048,                      !- X,Y,Z Vertex 2 {m}
  30.48, 18.288, 0,                       !- X,Y,Z Vertex 3 {m}
  30.48, 0, 0;                            !- X,Y,Z Vertex 4 {m}

OS:Surface,
  {45d820b9-d0d7-4149-9622-da8dc8a0b0bf}, !- Handle
  Surface 2,                              !- Name
  Wall,                                   !- Surface Type
  ,                                       !- Construction Name
  {284c0258-d466-4e54-bcdd-08399d87c0a3}, !- Space Name
  Ground,                                 !- Outside Boundary Condition
  ,                                       !- Outside Boundary Condition Object
  NoSun,                                  !- Sun Exposure
  NoWind,                                 !- Wind Exposure
  ,                                       !- View Factor to Ground
  ,                                       !- Number of Vertices
  0, 0, -3.048,                           !- X,Y,Z Vertex 1 {m}
  0, 0, 0,                                !- X,Y,Z Vertex 2 {m}
  0, 18.288, 0,                           !- X,Y,Z Vertex 3 {m}
  0, 18.288, -3.048;                      !- X,Y,Z Vertex 4 {m}

OS:Surface,
  {69277393-6fac-4274-9afd-67537d8cda60}, !- Handle
  Surface 3,                              !- Name
  Wall,                                   !- Surface Type
  ,                                       !- Construction Name
  {284c0258-d466-4e54-bcdd-08399d87c0a3}, !- Space Name
  Outdoors,                               !- Outside Boundary Condition
  ,                                       !- Outside Boundary Condition Object
  SunExposed,                             !- Sun Exposure
  WindExposed,                            !- Wind Exposure
  ,                                       !- View Factor to Ground
  ,                                       !- Number of Vertices
  0, 0, 0,                                !- X,Y,Z Vertex 1 {m}
  0, 0, 3.048,                            !- X,Y,Z Vertex 2 {m}
  0, 18.288, 3.048,                       !- X,Y,Z Vertex 3 {m}
  0, 18.288, 0;                           !- X,Y,Z Vertex 4 {m}

OS:Surface,
  {f311b0b3-3cef-4666-a576-fef5d3596c69}, !- Handle
  Surface 4,                              !- Name
  Wall,                                   !- Surface Type
  ,                                       !- Construction Name
  {284c0258-d466-4e54-bcdd-08399d87c0a3}, !- Space Name
  Ground,                                 !- Outside Boundary Condition
  ,                                       !- Outside Boundary Condition Object
  NoSun,                                  !- Sun Exposure
  NoWind,                                 !- Wind Exposure
  ,                                       !- View Factor to Ground
  ,                                       !- Number of Vertices
  0, 0, 0,                                !- X,Y,Z Vertex 1 {m}
  30.48, 0, 0,                            !- X,Y,Z Vertex 2 {m}
  30.48, 0, 3.048,                        !- X,Y,Z Vertex 3 {m}
  0, 0, 3.048;                            !- X,Y,Z Vertex 4 {m}

OS:Surface,
  {ae50b3eb-342e-4540-8420-09de83b7258e}, !- Handle
  Surface 5,                              !- Name
  Wall,                                   !- Surface Type
  ,                                       !- Construction Name
  {284c0258-d466-4e54-bcdd-08399d87c0a3}, !- Space Name
  Outdoors,                               !- Outside Boundary Condition
  ,                                       !- Outside Boundary Condition Object
  SunExposed,                             !- Sun Exposure
  WindExposed,                            !- Wind Exposure
  ,                                       !- View Factor to Ground
  ,                                       !- Number of Vertices
  0, 0, -3.048,                           !- X,Y,Z Vertex 1 {m}
  30.48, 0, 0,                            !- X,Y,Z Vertex 2 {m}
  0, 0, 0;                                !- X,Y,Z Vertex 3 {m}

OS:Surface,
  {50e7e946-0708-4569-8c4b-a50c94739d23}, !- Handle
  Surface 6,                              !- Name
  Wall,                                   !- Surface Type
  ,                                       !- Construction Name
  {284c0258-d466-4e54-bcdd-08399d87c0a3}, !- Space Name
  Outdoors,                               !- Outside Boundary Condition
  ,                                       !- Outside Boundary Condition Object
  SunExposed,                             !- Sun Exposure
  WindExposed,                            !- Wind Exposure
  ,                                       !- View Factor to Ground
  ,                                       !- Number of Vertices
  30.48, 0, 0,                            !- X,Y,Z Vertex 1 {m}
  30.48, 18.288, 0,                       !- X,Y,Z Vertex 2 {m}
  30.48, 18.288, 3.048,                   !- X,Y,Z Vertex 3 {m}
  30.48, 0, 3.048;                        !- X,Y,Z Vertex 4 {m}

OS:Surface,
  {6755ced5-a600-4645-93b3-70a90896c869}, !- Handle
  Surface 7,                              !- Name
  Wall,                                   !- Surface Type
  ,                                       !- Construction Name
  {284c0258-d466-4e54-bcdd-08399d87c0a3}, !- Space Name
  Outdoors,                               !- Outside Boundary Condition
  ,                                       !- Outside Boundary Condition Object
  SunExposed,                             !- Sun Exposure
  WindExposed,                            !- Wind Exposure
  ,                                       !- View Factor to Ground
  ,                                       !- Number of Vertices
  30.48, 18.288, 0,                       !- X,Y,Z Vertex 1 {m}
  0, 18.288, 0,                           !- X,Y,Z Vertex 2 {m}
  0, 18.288, 3.048,                       !- X,Y,Z Vertex 3 {m}
  30.48, 18.288, 3.048;                   !- X,Y,Z Vertex 4 {m}

OS:Surface,
  {2a9be4b5-db28-4286-bcce-21023984627c}, !- Handle
  Surface 8,                              !- Name
  Wall,                                   !- Surface Type
  ,                                       !- Construction Name
  {284c0258-d466-4e54-bcdd-08399d87c0a3}, !- Space Name
  Ground,                                 !- Outside Boundary Condition
  ,                                       !- Outside Boundary Condition Object
  NoSun,                                  !- Sun Exposure
  NoWind,                                 !- Wind Exposure
  ,                                       !- View Factor to Ground
  ,                                       !- Number of Vertices
  30.48, 18.288, 0,                       !- X,Y,Z Vertex 1 {m}
  0, 18.288, -3.048,                      !- X,Y,Z Vertex 2 {m}
  0, 18.288, 0;                           !- X,Y,Z Vertex 3 {m}

OS:Surface,
  {098d8a81-dfc7-4c0f-97d2-e50b0261d848}, !- Handle
  Surface 9,                              !- Name
  RoofCeiling,                            !- Surface Type
  ,                                       !- Construction Name
  {284c0258-d466-4e54-bcdd-08399d87c0a3}, !- Space Name
  Surface,                                !- Outside Boundary Condition
  {93389f42-ed1e-4bb6-8982-5ce9e0cb058d}, !- Outside Boundary Condition Object
  NoSun,                                  !- Sun Exposure
  NoWind,                                 !- Wind Exposure
  ,                                       !- View Factor to Ground
  ,                                       !- Number of Vertices
  0, 0, 3.048,                            !- X,Y,Z Vertex 1 {m}
  30.48, 0, 3.048,                        !- X,Y,Z Vertex 2 {m}
  30.48, 18.288, 3.048,                   !- X,Y,Z Vertex 3 {m}
  0, 18.288, 3.048;                       !- X,Y,Z Vertex 4 {m}

OS:Space,
  {97830628-9660-432d-95f9-039b3f742c84}, !- Handle
  sp-2-Unoccupied_Auditorium,             !- Name
  ,                                       !- Space Type Name
  ,                                       !- Default Construction Set Name
  ,                                       !- Default Schedule Set Name
  ,                                       !- Direction of Relative North {deg}
  ,                                       !- X Origin {m}
  ,                                       !- Y Origin {m}
  ,                                       !- Z Origin {m}
  {685f1c9f-bcdc-4372-9457-2724c64711ba}, !- Building Story Name
  {f56b3967-482a-4a57-a5a8-154eef541d7e}; !- Thermal Zone Name

OS:Surface,
  {93389f42-ed1e-4bb6-8982-5ce9e0cb058d}, !- Handle
  Surface 10,                             !- Name
  Floor,                                  !- Surface Type
  ,                                       !- Construction Name
  {97830628-9660-432d-95f9-039b3f742c84}, !- Space Name
  Surface,                                !- Outside Boundary Condition
  {098d8a81-dfc7-4c0f-97d2-e50b0261d848}, !- Outside Boundary Condition Object
  NoSun,                                  !- Sun Exposure
  NoWind,                                 !- Wind Exposure
  ,                                       !- View Factor to Ground
  ,                                       !- Number of Vertices
  0, 0, 3.048,                            !- X,Y,Z Vertex 1 {m}
  0, 18.288, 3.048,                       !- X,Y,Z Vertex 2 {m}
  30.48, 18.288, 3.048,                   !- X,Y,Z Vertex 3 {m}
  30.48, 0, 3.048;                        !- X,Y,Z Vertex 4 {m}

OS:Surface,
  {04076b76-fc9f-4487-a40e-c36a4b68ac03}, !- Handle
  Surface 11,                             !- Name
  Wall,                                   !- Surface Type
  ,                                       !- Construction Name
  {97830628-9660-432d-95f9-039b3f742c84}, !- Space Name
  Outdoors,                               !- Outside Boundary Condition
  ,                                       !- Outside Boundary Condition Object
  SunExposed,                             !- Sun Exposure
  WindExposed,                            !- Wind Exposure
  ,                                       !- View Factor to Ground
  ,                                       !- Number of Vertices
  0, 0, 3.048,                            !- X,Y,Z Vertex 1 {m}
  0, 0, 9.144,                            !- X,Y,Z Vertex 2 {m}
  0, 18.288, 9.144,                       !- X,Y,Z Vertex 3 {m}
  0, 18.288, 3.048;                       !- X,Y,Z Vertex 4 {m}

OS:Surface,
  {b5ffc5a7-50af-471d-9f86-7b1d760ea462}, !- Handle
  Surface 12,                             !- Name
  Wall,                                   !- Surface Type
  ,                                       !- Construction Name
  {97830628-9660-432d-95f9-039b3f742c84}, !- Space Name
  Outdoors,                               !- Outside Boundary Condition
  ,                                       !- Outside Boundary Condition Object
  SunExposed,                             !- Sun Exposure
  WindExposed,                            !- Wind Exposure
  ,                                       !- View Factor to Ground
  ,                                       !- Number of Vertices
  0, 0, 3.048,                            !- X,Y,Z Vertex 1 {m}
  30.48, 0, 3.048,                        !- X,Y,Z Vertex 2 {m}
  30.48, 0, 9.144,                        !- X,Y,Z Vertex 3 {m}
  0, 0, 9.144;                            !- X,Y,Z Vertex 4 {m}

OS:Surface,
  {e63ccb38-18f6-4445-9f93-517282cc98bc}, !- Handle
  Surface 13,                             !- Name
  Wall,                                   !- Surface Type
  ,                                       !- Construction Name
  {97830628-9660-432d-95f9-039b3f742c84}, !- Space Name
  Outdoors,                               !- Outside Boundary Condition
  ,                                       !- Outside Boundary Condition Object
  SunExposed,                             !- Sun Exposure
  WindExposed,                            !- Wind Exposure
  ,                                       !- View Factor to Ground
  ,                                       !- Number of Vertices
  30.48, 0, 3.048,                        !- X,Y,Z Vertex 1 {m}
  30.48, 18.288, 3.048,                   !- X,Y,Z Vertex 2 {m}
  30.48, 18.288, 9.144,                   !- X,Y,Z Vertex 3 {m}
  30.48, 0, 9.144;                        !- X,Y,Z Vertex 4 {m}

OS:Surface,
  {4778a547-757c-4ea9-b902-016c0ff75563}, !- Handle
  Surface 14,                             !- Name
  Wall,                                   !- Surface Type
  ,                                       !- Construction Name
  {284c0258-d466-4e54-bcdd-08399d87c0a3}, !- Space Name
  Outdoors,                               !- Outside Boundary Condition
  ,                                       !- Outside Boundary Condition Object
  SunExposed,                             !- Sun Exposure
  WindExposed,                            !- Wind Exposure
  ,                                       !- View Factor to Ground
  ,                                       !- Number of Vertices
  30.48, 18.288, 3.048,                   !- X,Y,Z Vertex 1 {m}
  0, 18.288, 3.048,                       !- X,Y,Z Vertex 2 {m}
  0, 18.288, 9.144,                       !- X,Y,Z Vertex 3 {m}
  30.48, 18.288, 9.144;                   !- X,Y,Z Vertex 4 {m}

OS:Surface,
  {b62d5e75-0ed9-4319-877d-c2e18fcde5e2}, !- Handle
  Surface 15,                             !- Name
  RoofCeiling,                            !- Surface Type
  ,                                       !- Construction Name
  {97830628-9660-432d-95f9-039b3f742c84}, !- Space Name
  Surface,                                !- Outside Boundary Condition
  {74ea2b2b-b0a3-4e3e-8fc4-4ce947aa0d2b}, !- Outside Boundary Condition Object
  NoSun,                                  !- Sun Exposure
  NoWind,                                 !- Wind Exposure
  ,                                       !- View Factor to Ground
  ,                                       !- Number of Vertices
  0, 0, 9.144,                            !- X,Y,Z Vertex 1 {m}
  30.48, 0, 9.144,                        !- X,Y,Z Vertex 2 {m}
  30.48, 18.288, 9.144,                   !- X,Y,Z Vertex 3 {m}
  0, 18.288, 9.144;                       !- X,Y,Z Vertex 4 {m}

OS:Space,
  {19a5b5aa-f465-4f4e-a9de-9172485f9cff}, !- Handle
  sp-3-Roof_Void,                         !- Name
  ,                                       !- Space Type Name
  ,                                       !- Default Construction Set Name
  ,                                       !- Default Schedule Set Name
  ,                                       !- Direction of Relative North {deg}
  ,                                       !- X Origin {m}
  ,                                       !- Y Origin {m}
  ,                                       !- Z Origin {m}
  {685f1c9f-bcdc-4372-9457-2724c64711ba}, !- Building Story Name
  {53057b5a-5971-4ec5-b282-24f8d4fa85d1}; !- Thermal Zone Name

OS:Surface,
  {74ea2b2b-b0a3-4e3e-8fc4-4ce947aa0d2b}, !- Handle
  Surface 16,                             !- Name
  Floor,                                  !- Surface Type
  ,                                       !- Construction Name
  {19a5b5aa-f465-4f4e-a9de-9172485f9cff}, !- Space Name
  Surface,                                !- Outside Boundary Condition
  {b62d5e75-0ed9-4319-877d-c2e18fcde5e2}, !- Outside Boundary Condition Object
  NoSun,                                  !- Sun Exposure
  NoWind,                                 !- Wind Exposure
  ,                                       !- View Factor to Ground
  ,                                       !- Number of Vertices
  0, 0, 9.144,                            !- X,Y,Z Vertex 1 {m}
  0, 18.288, 9.144,                       !- X,Y,Z Vertex 2 {m}
  30.48, 18.288, 9.144,                   !- X,Y,Z Vertex 3 {m}
  30.48, 0, 9.144;                        !- X,Y,Z Vertex 4 {m}

OS:Surface,
  {eed29c06-63ce-47ad-b055-adee8570dea7}, !- Handle
  Surface 17,                             !- Name
  Wall,                                   !- Surface Type
  ,                                       !- Construction Name
  {19a5b5aa-f465-4f4e-a9de-9172485f9cff}, !- Space Name
  Outdoors,                               !- Outside Boundary Condition
  ,                                       !- Outside Boundary Condition Object
  SunExposed,                             !- Sun Exposure
  WindExposed,                            !- Wind Exposure
  ,                                       !- View Factor to Ground
  ,                                       !- Number of Vertices
  0, 0, 9.144,                            !- X,Y,Z Vertex 1 {m}
  30.48, 0, 9.144,                        !- X,Y,Z Vertex 2 {m}
  8.6868, 0, 13.716;                      !- X,Y,Z Vertex 3 {m}

OS:Surface,
  {7cef7b12-2377-473e-9d7e-35f020c5e713}, !- Handle
  Surface 18,                             !- Name
  Wall,                                   !- Surface Type
  ,                                       !- Construction Name
  {19a5b5aa-f465-4f4e-a9de-9172485f9cff}, !- Space Name
  Outdoors,                               !- Outside Boundary Condition
  ,                                       !- Outside Boundary Condition Object
  SunExposed,                             !- Sun Exposure
  WindExposed,                            !- Wind Exposure
  ,                                       !- View Factor to Ground
  ,                                       !- Number of Vertices
  30.48, 18.288, 9.144,                   !- X,Y,Z Vertex 1 {m}
  0, 18.288, 9.144,                       !- X,Y,Z Vertex 2 {m}
  8.6868, 18.288, 13.716;                 !- X,Y,Z Vertex 3 {m}

OS:Surface,
  {aacd8333-b226-4c70-a457-27ff6db9a874}, !- Handle
  Surface 19,                             !- Name
  RoofCeiling,                            !- Surface Type
  ,                                       !- Construction Name
  {19a5b5aa-f465-4f4e-a9de-9172485f9cff}, !- Space Name
  Outdoors,                               !- Outside Boundary Condition
  ,                                       !- Outside Boundary Condition Object
  SunExposed,                             !- Sun Exposure
  WindExposed,                            !- Wind Exposure
  ,                                       !- View Factor to Ground
  ,                                       !- Number of Vertices
  0, 0, 9.144,                            !- X,Y,Z Vertex 1 {m}
  8.6868, 0, 13.716,                      !- X,Y,Z Vertex 2 {m}
  8.6868, 18.288, 13.716,                 !- X,Y,Z Vertex 3 {m}
  0, 18.288, 9.144;                       !- X,Y,Z Vertex 4 {m}

OS:Surface,
  {0d32c32b-6db1-4da3-9083-0252978ea561}, !- Handle
  Surface 20,                             !- Name
  RoofCeiling,                            !- Surface Type
  ,                                       !- Construction Name
  {19a5b5aa-f465-4f4e-a9de-9172485f9cff}, !- Space Name
  Outdoors,                               !- Outside Boundary Condition
  ,                                       !- Outside Boundary Condition Object
  SunExposed,                             !- Sun Exposure
  WindExposed,                            !- Wind Exposure
  ,                                       !- View Factor to Ground
  ,                                       !- Number of Vertices
  8.6868, 0, 13.716,                      !- X,Y,Z Vertex 1 {m}
  30.48, 0, 9.144,                        !- X,Y,Z Vertex 2 {m}
  30.48, 18.288, 9.144,                   !- X,Y,Z Vertex 3 {m}
  8.6868, 18.288, 13.716;                 !- X,Y,Z Vertex 4 {m}

OS:ThermalZone,
  {53057b5a-5971-4ec5-b282-24f8d4fa85d1}, !- Handle
  sp-3-Roof_Void,                         !- Name
  ,                                       !- Multiplier
  ,                                       !- Ceiling Height {m}
  ,                                       !- Volume {m3}
  ,                                       !- Floor Area {m2}
  ,                                       !- Zone Inside Convection Algorithm
  ,                                       !- Zone Outside Convection Algorithm
  ,                                       !- Zone Conditioning Equipment List Name
  {6fd2d2c5-346f-4ce0-94b8-f862a8546d63}, !- Zone Air Inlet Port List
  {39e1e491-6797-4e73-969f-9c7f14820ce5}, !- Zone Air Exhaust Port List
  {739edded-a284-4da9-a73b-94e61881f694}, !- Zone Air Node Name
  ,                                       !- Zone Return Air Node Name
  ,                                       !- Primary Daylighting Control Name
  ,                                       !- Fraction of Zone Controlled by Primary Daylighting Control
  ,                                       !- Secondary Daylighting Control Name
  ,                                       !- Fraction of Zone Controlled by Secondary Daylighting Control
  ,                                       !- Illuminance Map Name
  ,                                       !- Group Rendering Name
  ,                                       !- Thermostat Name
  No;                                     !- Use Ideal Air Loads

OS:Node,
  {8c122889-dd05-4ba4-b7e2-2a0b46a868b8}, !- Handle
  Node 1,                                 !- Name
  {739edded-a284-4da9-a73b-94e61881f694}, !- Inlet Port
  ;                                       !- Outlet Port

OS:Connection,
  {739edded-a284-4da9-a73b-94e61881f694}, !- Handle
  {a5463037-de0d-4e01-8cae-ba279b621f4f}, !- Name
  {53057b5a-5971-4ec5-b282-24f8d4fa85d1}, !- Source Object
  11,                                     !- Outlet Port
  {8c122889-dd05-4ba4-b7e2-2a0b46a868b8}, !- Target Object
  2;                                      !- Inlet Port

OS:PortList,
  {6fd2d2c5-346f-4ce0-94b8-f862a8546d63}, !- Handle
  Port List 1,                            !- Name
  {53057b5a-5971-4ec5-b282-24f8d4fa85d1}; !- HVAC Component

OS:PortList,
  {39e1e491-6797-4e73-969f-9c7f14820ce5}, !- Handle
  Port List 2,                            !- Name
  {53057b5a-5971-4ec5-b282-24f8d4fa85d1}; !- HVAC Component

OS:Sizing:Zone,
  {0129914a-82ae-42dc-a466-151b23506855}, !- Handle
  {53057b5a-5971-4ec5-b282-24f8d4fa85d1}, !- Zone or ZoneList Name
  14,                                     !- Zone Cooling Design Supply Air Temperature {C}
  40,                                     !- Zone Heating Design Supply Air Temperature {C}
  0.0085,                                 !- Zone Cooling Design Supply Air Humidity Ratio {kg-H2O/kg-air}
  0.008,                                  !- Zone Heating Design Supply Air Humidity Ratio {kg-H2O/kg-air}
  ,                                       !- Zone Heating Sizing Factor
  ,                                       !- Zone Cooling Sizing Factor
  DesignDay,                              !- Cooling Design Air Flow Method
  ,                                       !- Cooling Design Air Flow Rate {m3/s}
  ,                                       !- Cooling Minimum Air Flow per Zone Floor Area {m3/s-m2}
  ,                                       !- Cooling Minimum Air Flow {m3/s}
  ,                                       !- Cooling Minimum Air Flow Fraction
  DesignDay,                              !- Heating Design Air Flow Method
  ,                                       !- Heating Design Air Flow Rate {m3/s}
  ,                                       !- Heating Maximum Air Flow per Zone Floor Area {m3/s-m2}
  ,                                       !- Heating Maximum Air Flow {m3/s}
  ,                                       !- Heating Maximum Air Flow Fraction
  ,                                       !- Design Zone Air Distribution Effectiveness in Cooling Mode
  ;                                       !- Design Zone Air Distribution Effectiveness in Heating Mode

OS:ZoneHVAC:EquipmentList,
  {9f87f2e6-7b6a-47c4-8a32-814a2cee93f2}, !- Handle
  Zone HVAC Equipment List 1,             !- Name
  {53057b5a-5971-4ec5-b282-24f8d4fa85d1}; !- Thermal Zone

OS:ThermalZone,
  {b19e516b-c729-4a39-9207-2f62359cb44b}, !- Handle
  sp-1-Occupied_Auditorium,               !- Name
  ,                                       !- Multiplier
  ,                                       !- Ceiling Height {m}
  ,                                       !- Volume {m3}
  ,                                       !- Floor Area {m2}
  ,                                       !- Zone Inside Convection Algorithm
  ,                                       !- Zone Outside Convection Algorithm
  ,                                       !- Zone Conditioning Equipment List Name
  {f08215e3-34e2-4714-865d-3f7d236bd471}, !- Zone Air Inlet Port List
  {c3da80c7-69cb-459b-b74b-18888da36db5}, !- Zone Air Exhaust Port List
  {79afbeed-591f-4807-a96f-eb0c28c7bcfd}, !- Zone Air Node Name
  ,                                       !- Zone Return Air Node Name
  ,                                       !- Primary Daylighting Control Name
  ,                                       !- Fraction of Zone Controlled by Primary Daylighting Control
  ,                                       !- Secondary Daylighting Control Name
  ,                                       !- Fraction of Zone Controlled by Secondary Daylighting Control
  ,                                       !- Illuminance Map Name
  ,                                       !- Group Rendering Name
  ,                                       !- Thermostat Name
  No;                                     !- Use Ideal Air Loads

OS:Node,
  {a090132a-ccfb-49ea-b609-f31e27228929}, !- Handle
  Node 2,                                 !- Name
  {79afbeed-591f-4807-a96f-eb0c28c7bcfd}, !- Inlet Port
  ;                                       !- Outlet Port

OS:Connection,
  {79afbeed-591f-4807-a96f-eb0c28c7bcfd}, !- Handle
  {f99746be-d5fb-4d63-b96c-0de24b79590c}, !- Name
  {b19e516b-c729-4a39-9207-2f62359cb44b}, !- Source Object
  11,                                     !- Outlet Port
  {a090132a-ccfb-49ea-b609-f31e27228929}, !- Target Object
  2;                                      !- Inlet Port

OS:PortList,
  {f08215e3-34e2-4714-865d-3f7d236bd471}, !- Handle
  Port List 3,                            !- Name
  {b19e516b-c729-4a39-9207-2f62359cb44b}; !- HVAC Component

OS:PortList,
  {c3da80c7-69cb-459b-b74b-18888da36db5}, !- Handle
  Port List 4,                            !- Name
  {b19e516b-c729-4a39-9207-2f62359cb44b}; !- HVAC Component

OS:Sizing:Zone,
  {12644976-2f15-4c4c-994d-cff8ad0d5636}, !- Handle
  {b19e516b-c729-4a39-9207-2f62359cb44b}, !- Zone or ZoneList Name
  14,                                     !- Zone Cooling Design Supply Air Temperature {C}