
OS:Version,
  {825b287e-1361-4378-b45d-8d527dc0ebf3}, !- Handle
  1.12.2;                                 !- Version Identifier

OS:SpaceType,
  {2f4f71cc-03d6-4f90-9a9e-ec49860e3646}, !- Handle
  189.1-2009 - Office - Lobby - CZ4-8,    !- Name
  ,                                       !- Default Construction Set Name
  {e5eb7a3c-6d11-4ebe-810c-be05b3aa178f}, !- Default Schedule Set Name
  {757cc4df-c0fb-40b6-abff-536a67464680}, !- Group Rendering Name
  {0df2ccc1-89e1-4562-848e-57d0dd60d346}, !- Design Specification Outdoor Air Object Name
  Office,                                 !- Standards Building Type
  Lobby;                                  !- Standards Space Type

OS:DefaultScheduleSet,
  {e5eb7a3c-6d11-4ebe-810c-be05b3aa178f}, !- Handle
  189.1-2009 - Office - Lobby - CZ4-8 Schedule Set, !- Name
  ,                                       !- Hours of Operation Schedule Name
  {fb6215ef-0dd1-4d0d-9d59-9106595510b9}, !- Number of People Schedule Name
  {382ee604-83d8-4939-bb93-bd9996c3f5f3}, !- People Activity Level Schedule Name
  {7fca5d7f-3930-43be-a90d-40a292ef3ef2}, !- Lighting Schedule Name
  {56c5027a-57a7-49a2-94a4-8a0fefaa628f}, !- Electric Equipment Schedule Name
  ,                                       !- Gas Equipment Schedule Name
  ,                                       !- Hot Water Equipment Schedule Name
  {2260d522-2733-4d66-8416-0c7bb31a0830}, !- Infiltration Schedule Name
  ,                                       !- Steam Equipment Schedule Name
  ;                                       !- Other Equipment Schedule Name

OS:Rendering:Color,
  {757cc4df-c0fb-40b6-abff-536a67464680}, !- Handle
  Rendering Color 23,                     !- Name
  230,                                    !- Rendering Red Value
  157,                                    !- Rendering Green Value
  120;                                    !- Rendering Blue Value

OS:DesignSpecification:OutdoorAir,
  {0df2ccc1-89e1-4562-848e-57d0dd60d346}, !- Handle
  189.1-2009 - Office - Lobby - CZ4-8 Ventilation, !- Name
  Sum,                                    !- Outdoor Air Method
  0.007079211648,                         !- Outdoor Air Flow per Person {m3/s-person}
  ,                                       !- Outdoor Air Flow per Floor Area {m3/s-m2}
  ,                                       !- Outdoor Air Flow Rate {m3/s}
  ,                                       !- Outdoor Air Flow Air Changes per Hour {1/hr}
  ;                                       !- Outdoor Air Flow Rate Fraction Schedule Name

OS:Schedule:Ruleset,
  {fb6215ef-0dd1-4d0d-9d59-9106595510b9}, ! Handle
  Office Misc Occ,                        ! Name
  {d75e5442-eed9-4e8b-91a4-8ebe2fe28ce2}, ! Schedule Type Limits Name
  {2fc550ec-8a7c-4afd-a40b-eb006af99f5d}, ! Default Day Schedule Name
  {543ef8cb-9024-44c1-8e4f-f6b0f477dccd}, ! Summer Design Day Schedule Name
  {b2151f12-6f45-4aa1-95ef-ccd50ff3a3a5}; ! Winter Design Day Schedule Name

OS:Schedule:Day,
  {2fc550ec-8a7c-4afd-a40b-eb006af99f5d}, ! Handle
  Office Bldg Occ Default Schedule 1,     ! Name
  {d75e5442-eed9-4e8b-91a4-8ebe2fe28ce2}, ! Schedule Type Limits Name
  ,                                       ! Interpolate to Timestep
  6,                                      !- Hour 1
  0,                                      !- Minute 1
  0,                                      !- Value Until Time 1
  7,                                      !- Hour 2
  0,                                      !- Minute 2
  0.100000001490116,                      !- Value Until Time 2
  8,                                      !- Hour 3
  0,                                      !- Minute 3
  0.200000002980232,                      !- Value Until Time 3
  20,                                     !- Hour 4
  0,                                      !- Minute 4
  0.400000005960464,                      !- Value Until Time 4
  22,                                     !- Hour 5
  0,                                      !- Minute 5
  0.100000001490116,                      !- Value Until Time 5
  24,                                     !- Hour 6
  0,                                      !- Minute 6
  0.0500000007450581;                     !- Value Until Time 6

OS:Schedule:Day,
  {543ef8cb-9024-44c1-8e4f-f6b0f477dccd}, ! Handle
  Office Bldg Occ Summer Design Day 1,    ! Name
  {d75e5442-eed9-4e8b-91a4-8ebe2fe28ce2}, ! Schedule Type Limits Name
  ,                                       ! Interpolate to Timestep
  6,                                      ! Hour 1
  0,                                      ! Minute 1
  0,                                      ! Value Until Time 1
  22,                                     ! Hour 2
  0,                                      ! Minute 2
  1,                                      ! Value Until Time 2
  24,                                     ! Hour 3
  0,                                      ! Minute 3
  0.050000000000000003;                   ! Value Until Time 3

OS:Schedule:Day,
  {b2151f12-6f45-4aa1-95ef-ccd50ff3a3a5}, ! Handle
  Office Bldg Occ Winter Design Day 1,    ! Name
  {d75e5442-eed9-4e8b-91a4-8ebe2fe28ce2}, ! Schedule Type Limits Name
  ,                                       ! Interpolate to Timestep
  24,                                     ! Hour 1
  0,                                      ! Minute 1
  0;                                      ! Value Until Time 1

OS:Schedule:Rule,
  {18f50c73-3d19-43fc-93b5-b06d513e503e}, ! Handle
  Office Misc Occ Rule 1,                 ! Name
  {fb6215ef-0dd1-4d0d-9d59-9106595510b9}, ! Schedule Ruleset Name
  0,                                      ! Rule Order
  {b8e02b6e-81e8-4dbe-85fd-880766ba2b30}, ! Day Schedule Name
  Yes,                                    ! Apply Sunday
  No,                                     ! Apply Monday
  No,                                     ! Apply Tuesday
  No,                                     ! Apply Wednesday
  No,                                     ! Apply Thursday
  No,                                     ! Apply Friday
  No,                                     ! Apply Saturday
  ,                                       ! Apply Holiday
  DateRange,                              ! Date Specification Type
  1,                                      ! Start Month
  1,                                      ! Start Day
  12,                                     ! End Month
  31;                                     ! End Day

OS:Schedule:Rule,
  {595e07dc-5523-43bf-8d8d-eace70c7d91e}, ! Handle
  Office Misc Occ Rule 2,                 ! Name
  {fb6215ef-0dd1-4d0d-9d59-9106595510b9}, ! Schedule Ruleset Name
  1,                                      ! Rule Order
  {d5aa87d4-8d68-45c9-a872-a3a19ec11235}, ! Day Schedule Name
  No,                                     ! Apply Sunday
  No,                                     ! Apply Monday
  No,                                     ! Apply Tuesday
  No,                                     ! Apply Wednesday
  No,                                     ! Apply Thursday
  No,                                     ! Apply Friday
  Yes,                                    ! Apply Saturday
  ,                                       ! Apply Holiday
  DateRange,                              ! Date Specification Type
  1,                                      ! Start Month
  1,                                      ! Start Day
  12,                                     ! End Month
  31;                                     ! End Day

OS:Schedule:Day,
  {b8e02b6e-81e8-4dbe-85fd-880766ba2b30}, ! Handle
  Office Bldg Occ Rule 1 Day Schedule 1,  ! Name
  {d75e5442-eed9-4e8b-91a4-8ebe2fe28ce2}, ! Schedule Type Limits Name
  ,                                       ! Interpolate to Timestep
  24,                                     ! Hour 1
  0,                                      ! Minute 1
  0;                                      ! Value Until Time 1

OS:Schedule:Day,
  {d5aa87d4-8d68-45c9-a872-a3a19ec11235}, ! Handle
  Office Bldg Occ Rule 2 Day Schedule 1,  ! Name
  {d75e5442-eed9-4e8b-91a4-8ebe2fe28ce2}, ! Schedule Type Limits Name
  ,                                       ! Interpolate to Timestep
  6,                                      !- Hour 1
  0,                                      !- Minute 1
  0,                                      !- Value Until Time 1
  8,                                      !- Hour 2
  0,                                      !- Minute 2
  0.100000001490116,                      !- Value Until Time 2
  14,                                     !- Hour 3
  0,                                      !- Minute 3
  0.25,                                   !- Value Until Time 3
  17,                                     !- Hour 4
  0,                                      !- Minute 4
  0.100000001490116,                      !- Value Until Time 4
  24,                                     !- Hour 5
  0,                                      !- Minute 5
  0;                                      !- Value Until Time 5

OS:Schedule:Ruleset,
  {382ee604-83d8-4939-bb93-bd9996c3f5f3}, ! Handle
  Office Activity,                        ! Name
  {3c382484-cec1-4d5d-9aa1-c3e1cd4f6d03}, ! Schedule Type Limits Name
  {9267dd0d-96ca-4dba-b068-6bedb12ef983}, ! Default Day Schedule Name
  {979b7435-5e94-402b-8fea-49baf6eaf49b}, ! Summer Design Day Schedule Name
  {4f58ba7c-7914-49bb-97cf-de5c6031025d}; ! Winter Design Day Schedule Name

OS:Schedule:Day,
  {9267dd0d-96ca-4dba-b068-6bedb12ef983}, ! Handle
  Office Activity Default Schedule,       ! Name
  {3c382484-cec1-4d5d-9aa1-c3e1cd4f6d03}, ! Schedule Type Limits Name
  ,                                       ! Interpolate to Timestep
  24,                                     !- Hour 1
  0,                                      !- Minute 1
  132;                                    !- Value Until Time 1

OS:Schedule:Day,
  {979b7435-5e94-402b-8fea-49baf6eaf49b}, ! Handle
  Office Activity Summer Design Day,      ! Name
  {3c382484-cec1-4d5d-9aa1-c3e1cd4f6d03}, ! Schedule Type Limits Name
  ,                                       ! Interpolate to Timestep
  24,                                     !- Hour 1
  0,                                      !- Minute 1
  132;                                    !- Value Until Time 1

OS:Schedule:Day,
  {4f58ba7c-7914-49bb-97cf-de5c6031025d}, ! Handle
  Office Activity Winter Design Day,      ! Name
  {3c382484-cec1-4d5d-9aa1-c3e1cd4f6d03}, ! Schedule Type Limits Name
  ,                                       ! Interpolate to Timestep
  24,                                     !- Hour 1
  0,                                      !- Minute 1
  132;                                    !- Value Until Time 1

OS:Schedule:Ruleset,
  {7fca5d7f-3930-43be-a90d-40a292ef3ef2}, ! Handle
  Office Bldg Light,                      ! Name
  {d75e5442-eed9-4e8b-91a4-8ebe2fe28ce2}, ! Schedule Type Limits Name
  {9d4d631d-36f2-4447-8a99-2a3273346915}, ! Default Day Schedule Name
  {4ec43258-4712-4dc1-8104-36266c8f14ed}, ! Summer Design Day Schedule Name
  {1019ffc2-f470-4e86-9c13-e5eb23128239}; ! Winter Design Day Schedule Name

OS:Schedule:Day,
  {9d4d631d-36f2-4447-8a99-2a3273346915}, ! Handle
  Office Bldg Light Default Schedule,     ! Name
  {d75e5442-eed9-4e8b-91a4-8ebe2fe28ce2}, ! Schedule Type Limits Name
  ,                                       ! Interpolate to Timestep
  5,                                      !- Hour 1
  0,                                      !- Minute 1
  0.05,                                   !- Value Until Time 1
  7,                                      !- Hour 2
  0,                                      !- Minute 2
  0.1,                                    !- Value Until Time 2
  8,                                      !- Hour 3
  0,                                      !- Minute 3
  0.3,                                    !- Value Until Time 3
  17,                                     !- Hour 4
  0,                                      !- Minute 4
  0.9,                                    !- Value Until Time 4
  18,                                     !- Hour 5
  0,                                      !- Minute 5
  0.7,                                    !- Value Until Time 5
  20,                                     !- Hour 6
  0,                                      !- Minute 6
  0.5,                                    !- Value Until Time 6
  22,                                     !- Hour 7
  0,                                      !- Minute 7
  0.3,                                    !- Value Until Time 7
  23,                                     !- Hour 8
  0,                                      !- Minute 8
  0.1,                                    !- Value Until Time 8
  24,                                     !- Hour 9
  0,                                      !- Minute 9
  0.05;                                   !- Value Until Time 9

OS:Schedule:Day,
  {4ec43258-4712-4dc1-8104-36266c8f14ed}, ! Handle
  Office Bldg Light Summer Design Day,    ! Name
  {d75e5442-eed9-4e8b-91a4-8ebe2fe28ce2}, ! Schedule Type Limits Name
  ,                                       ! Interpolate to Timestep
  24,                                     ! Hour 1
  0,                                      ! Minute 1
  1;                                      ! Value Until Time 1

OS:Schedule:Day,
  {1019ffc2-f470-4e86-9c13-e5eb23128239}, ! Handle
  Office Bldg Light Winter Design Day,    ! Name
  {d75e5442-eed9-4e8b-91a4-8ebe2fe28ce2}, ! Schedule Type Limits Name
  ,                                       ! Interpolate to Timestep
  24,                                     ! Hour 1
  0,                                      ! Minute 1
  0;                                      ! Value Until Time 1

OS:Schedule:Rule,
  {1bd83e24-ec2d-490b-b95b-37cf67bcaa00}, ! Handle
  Office Bldg Light Rule 1,               ! Name
  {7fca5d7f-3930-43be-a90d-40a292ef3ef2}, ! Schedule Ruleset Name
  0,                                      ! Rule Order
  {f0a37bfa-643f-43de-9c17-4ee4222ff295}, ! Day Schedule Name
  Yes,                                    ! Apply Sunday
  No,                                     ! Apply Monday
  No,                                     ! Apply Tuesday
  No,                                     ! Apply Wednesday
  No,                                     ! Apply Thursday
  No,                                     ! Apply Friday
  No,                                     ! Apply Saturday
  ,                                       ! Apply Holiday
  DateRange,                              ! Date Specification Type
  1,                                      ! Start Month
  1,                                      ! Start Day
  12,                                     ! End Month
  31;                                     ! End Day

OS:Schedule:Rule,
  {ffa16ccd-81e2-453f-92d6-b79009765678}, ! Handle
  Office Bldg Light Rule 2,               ! Name
  {7fca5d7f-3930-43be-a90d-40a292ef3ef2}, ! Schedule Ruleset Name
  1,                                      ! Rule Order
  {e70514d3-5356-4010-a9c0-0b9f9d1e377d}, ! Day Schedule Name
  No,                                     ! Apply Sunday
  No,                                     ! Apply Monday
  No,                                     ! Apply Tuesday
  No,                                     ! Apply Wednesday
  No,                                     ! Apply Thursday
  No,                                     ! Apply Friday
  Yes,                                    ! Apply Saturday
  ,                                       ! Apply Holiday
  DateRange,                              ! Date Specification Type
  1,                                      ! Start Month
  1,                                      ! Start Day
  12,                                     ! End Month
  31;                                     ! End Day

OS:Schedule:Day,
  {f0a37bfa-643f-43de-9c17-4ee4222ff295}, ! Handle
  Office Bldg Light Rule 1 Day Schedule,  ! Name
  {d75e5442-eed9-4e8b-91a4-8ebe2fe28ce2}, ! Schedule Type Limits Name
  ,                                       ! Interpolate to Timestep
  24,                                     ! Hour 1
  0,                                      ! Minute 1
  0.050000000000000003;                   ! Value Until Time 1

OS:Schedule:Day,
  {e70514d3-5356-4010-a9c0-0b9f9d1e377d}, ! Handle
  Office Bldg Light Rule 2 Day Schedule,  ! Name
  {d75e5442-eed9-4e8b-91a4-8ebe2fe28ce2}, ! Schedule Type Limits Name
  ,                                       ! Interpolate to Timestep
  6,                                      ! Hour 1
  0,                                      ! Minute 1
  0.050000000000000003,                   ! Value Until Time 1
  8,                                      ! Hour 2
  0,                                      ! Minute 2
  0.10000000000000001,                    ! Value Until Time 2
  14,                                     ! Hour 3
  0,                                      ! Minute 3
  0.5,                                    ! Value Until Time 3
  17,                                     ! Hour 4
  0,                                      ! Minute 4
  0.14999999999999999,                    ! Value Until Time 4
  24,                                     ! Hour 5
  0,                                      ! Minute 5
  0.050000000000000003;                   ! Value Until Time 5

OS:Schedule:Ruleset,
  {56c5027a-57a7-49a2-94a4-8a0fefaa628f}, ! Handle
  Office Bldg Equip,                      ! Name
  {d75e5442-eed9-4e8b-91a4-8ebe2fe28ce2}, ! Schedule Type Limits Name
  {7dd78ec1-15a6-4fe2-b610-c741063899e3}, ! Default Day Schedule Name
  {bd809d45-8ebf-4b96-87c8-4c82e4407d23}, ! Summer Design Day Schedule Name
  {539073d3-f972-477a-80d9-4160d2c36950}; ! Winter Design Day Schedule Name

OS:Schedule:Day,
  {7dd78ec1-15a6-4fe2-b610-c741063899e3}, ! Handle
  Office Bldg Equip Default Schedule,     ! Name
  {d75e5442-eed9-4e8b-91a4-8ebe2fe28ce2}, ! Schedule Type Limits Name
  ,                                       ! Interpolate to Timestep
  8,                                      !- Hour 1
  0,                                      !- Minute 1
  0.4,                                    !- Value Until Time 1
  12,                                     !- Hour 2
  0,                                      !- Minute 2
  0.9,                                    !- Value Until Time 2
  13,                                     !- Hour 3
  0,                                      !- Minute 3
  0.8,                                    !- Value Until Time 3
  17,                                     !- Hour 4
  0,                                      !- Minute 4
  0.9,                                    !- Value Until Time 4
  18,                                     !- Hour 5
  0,                                      !- Minute 5
  0.8,                                    !- Value Until Time 5
  20,                                     !- Hour 6
  0,                                      !- Minute 6
  0.6,                                    !- Value Until Time 6
  22,                                     !- Hour 7
  0,                                      !- Minute 7
  0.5,                                    !- Value Until Time 7
  24,                                     !- Hour 8
  0,                                      !- Minute 8
  0.4;                                    !- Value Until Time 8

OS:Schedule:Day,
  {bd809d45-8ebf-4b96-87c8-4c82e4407d23}, ! Handle
  Office Bldg Equip Summer Design Day,    ! Name
  {d75e5442-eed9-4e8b-91a4-8ebe2fe28ce2}, ! Schedule Type Limits Name
  ,                                       ! Interpolate to Timestep
  24,                                     ! Hour 1
  0,                                      ! Minute 1
  1;                                      ! Value Until Time 1

OS:Schedule:Day,
  {539073d3-f972-477a-80d9-4160d2c36950}, ! Handle
  Office Bldg Equip Winter Design Day,    ! Name
  {d75e5442-eed9-4e8b-91a4-8ebe2fe28ce2}, ! Schedule Type Limits Name
  ,                                       ! Interpolate to Timestep
  24,                                     ! Hour 1
  0,                                      ! Minute 1
  0;                                      ! Value Until Time 1

OS:Schedule:Rule,
  {e4c779c0-2f8d-457c-95d7-41ecb4fa8164}, ! Handle
  Office Bldg Equip Rule 1,               ! Name
  {56c5027a-57a7-49a2-94a4-8a0fefaa628f}, ! Schedule Ruleset Name
  0,                                      ! Rule Order
  {5470180f-42ca-4103-9c38-b16cc91ac798}, ! Day Schedule Name
  Yes,                                    ! Apply Sunday
  No,                                     ! Apply Monday
  No,                                     ! Apply Tuesday
  No,                                     ! Apply Wednesday
  No,                                     ! Apply Thursday
  No,                                     ! Apply Friday
  No,                                     ! Apply Saturday
  ,                                       ! Apply Holiday
  DateRange,                              ! Date Specification Type
  1,                                      ! Start Month
  1,                                      ! Start Day
  12,                                     ! End Month
  31;                                     ! End Day

OS:Schedule:Rule,
  {4969eb20-980b-432b-8365-55d6cee8d7f6}, ! Handle
  Office Bldg Equip Rule 2,               ! Name
  {56c5027a-57a7-49a2-94a4-8a0fefaa628f}, ! Schedule Ruleset Name
  1,                                      ! Rule Order
  {e53a4991-c603-42af-9933-314faa704aff}, ! Day Schedule Name
  No,                                     ! Apply Sunday
  No,                                     ! Apply Monday
  No,                                     ! Apply Tuesday
  No,                                     ! Apply Wednesday
  No,                                     ! Apply Thursday
  No,                                     ! Apply Friday
  Yes,                                    ! Apply Saturday
  ,                                       ! Apply Holiday
  DateRange,                              ! Date Specification Type
  1,                                      ! Start Month
  1,                                      ! Start Day
  12,                                     ! End Month
  31;                                     ! End Day

OS:Schedule:Day,
  {5470180f-42ca-4103-9c38-b16cc91ac798}, ! Handle
  Office Bldg Equip Rule 1 Day Schedule,  ! Name
  {d75e5442-eed9-4e8b-91a4-8ebe2fe28ce2}, ! Schedule Type Limits Name
  ,                                       ! Interpolate to Timestep
  24,                                     ! Hour 1
  0,                                      ! Minute 1
  0.29999999999999999;                    ! Value Until Time 1

OS:Schedule:Day,
  {e53a4991-c603-42af-9933-314faa704aff}, ! Handle
  Office Bldg Equip Rule 2 Day Schedule,  ! Name
  {d75e5442-eed9-4e8b-91a4-8ebe2fe28ce2}, ! Schedule Type Limits Name
  ,                                       ! Interpolate to Timestep
  6,                                      ! Hour 1
  0,                                      ! Minute 1
  0.29999999999999999,                    ! Value Until Time 1
  8,                                      ! Hour 2
  0,                                      ! Minute 2
  0.40000000000000002,                    ! Value Until Time 2
  14,                                     ! Hour 3
  0,                                      ! Minute 3
  0.5,                                    ! Value Until Time 3
  17,                                     ! Hour 4
  0,                                      ! Minute 4
  0.34999999999999998,                    ! Value Until Time 4
  24,                                     ! Hour 5
  0,                                      ! Minute 5
  0.29999999999999999;                    ! Value Until Time 5

OS:Schedule:Ruleset,
  {2260d522-2733-4d66-8416-0c7bb31a0830}, ! Handle
  Office Infil Quarter On,                ! Name
  {d75e5442-eed9-4e8b-91a4-8ebe2fe28ce2}, ! Schedule Type Limits Name
  {abf78a02-3e25-4140-b2aa-8354254fa751}, ! Default Day Schedule Name
  {be6ed55a-6ab0-4a50-92e7-e4677fb5d65b}, ! Summer Design Day Schedule Name
  {816b6297-6ad9-4b18-9dbb-8de055096992}; ! Winter Design Day Schedule Name

OS:Schedule:Day,
  {abf78a02-3e25-4140-b2aa-8354254fa751}, ! Handle
  Office Infil Quarter On Default Schedule, ! Name
  {d75e5442-eed9-4e8b-91a4-8ebe2fe28ce2}, ! Schedule Type Limits Name
  ,                                       ! Interpolate to Timestep
  6,                                      !- Hour 1
  0,                                      !- Minute 1
  1,                                      !- Value Until Time 1
  22,                                     !- Hour 2
  0,                                      !- Minute 2
  0.25,                                   !- Value Until Time 2
  24,                                     !- Hour 3
  0,                                      !- Minute 3
  1;                                      !- Value Until Time 3

OS:Schedule:Day,
  {be6ed55a-6ab0-4a50-92e7-e4677fb5d65b}, ! Handle
  Office Infil Quarter On Summer Design Day, ! Name
  {d75e5442-eed9-4e8b-91a4-8ebe2fe28ce2}, ! Schedule Type Limits Name
  ,                                       ! Interpolate to Timestep
  6,                                      ! Hour 1
  0,                                      ! Minute 1
  1,                                      ! Value Until Time 1
  22,                                     ! Hour 2
  0,                                      ! Minute 2
  0.25,                                   ! Value Until Time 2
  24,                                     ! Hour 3
  0,                                      ! Minute 3
  1;                                      ! Value Until Time 3

OS:Schedule:Day,
  {816b6297-6ad9-4b18-9dbb-8de055096992}, ! Handle
  Office Infil Quarter On Winter Design Day, ! Name
  {d75e5442-eed9-4e8b-91a4-8ebe2fe28ce2}, ! Schedule Type Limits Name
  ,                                       ! Interpolate to Timestep
  6,                                      ! Hour 1
  0,                                      ! Minute 1
  1,                                      ! Value Until Time 1
  18,                                     ! Hour 2
  0,                                      ! Minute 2
  0.25,                                   ! Value Until Time 2
  24,                                     ! Hour 3
  0,                                      ! Minute 3
  1;                                      ! Value Until Time 3

OS:Schedule:Rule,
  {71bac9e2-4c12-4dce-b459-4f157602e40f}, ! Handle
  Office Infil Quarter On Rule 1,         ! Name
  {2260d522-2733-4d66-8416-0c7bb31a0830}, ! Schedule Ruleset Name
  0,                                      ! Rule Order
  {aad3a9a6-4a77-4c32-abf9-59040c405e7f}, ! Day Schedule Name
  Yes,                                    ! Apply Sunday
  No,                                     ! Apply Monday
  No,                                     ! Apply Tuesday
  No,                                     ! Apply Wednesday
  No,                                     ! Apply Thursday
  No,                                     ! Apply Friday
  No,                                     ! Apply Saturday
  ,                                       ! Apply Holiday
  DateRange,                              ! Date Specification Type
  1,                                      ! Start Month
  1,                                      ! Start Day
  12,                                     ! End Month
  31;                                     ! End Day

OS:Schedule:Rule,
  {7dc4d8f9-06ac-4e85-a0ee-11348280e3dc}, ! Handle
  Office Infil Quarter On Rule 2,         ! Name
  {2260d522-2733-4d66-8416-0c7bb31a0830}, ! Schedule Ruleset Name
  1,                                      ! Rule Order
  {e5956063-7f68-41fe-b882-cafd0d433901}, ! Day Schedule Name
  No,                                     ! Apply Sunday
  No,                                     ! Apply Monday
  No,                                     ! Apply Tuesday
  No,                                     ! Apply Wednesday
  No,                                     ! Apply Thursday
  No,                                     ! Apply Friday
  Yes,                                    ! Apply Saturday
  ,                                       ! Apply Holiday
  DateRange,                              ! Date Specification Type
  1,                                      ! Start Month
  1,                                      ! Start Day
  12,                                     ! End Month
  31;                                     ! End Day

OS:Schedule:Day,
  {aad3a9a6-4a77-4c32-abf9-59040c405e7f}, ! Handle
  Office Infil Quarter On Rule 1 Day Schedule, ! Name
  {d75e5442-eed9-4e8b-91a4-8ebe2fe28ce2}, ! Schedule Type Limits Name
  ,                                       ! Interpolate to Timestep
  24,                                     ! Hour 1
  0,                                      ! Minute 1
  1;                                      ! Value Until Time 1

OS:Schedule:Day,
  {e5956063-7f68-41fe-b882-cafd0d433901}, ! Handle
  Office Infil Quarter On Rule 2 Day Schedule, ! Name
  {d75e5442-eed9-4e8b-91a4-8ebe2fe28ce2}, ! Schedule Type Limits Name
  ,                                       ! Interpolate to Timestep
  6,                                      ! Hour 1
  0,                                      ! Minute 1
  1,                                      ! Value Until Time 1
  18,                                     ! Hour 2
  0,                                      ! Minute 2
  0.25,                                   ! Value Until Time 2
  24,                                     ! Hour 3
  0,                                      ! Minute 3
  1;                                      ! Value Until Time 3

OS:ScheduleTypeLimits,
  {d75e5442-eed9-4e8b-91a4-8ebe2fe28ce2}, ! Handle
  Fraction,                               ! Name