
OS:Version,
  {f8d83cfe-fe90-4fb3-baf2-946d17db2ea2}, !- Handle
  1.9.0;                                  !- Version Identifier

OS:Facility,
  {4af8524f-12fd-400a-8726-4521ff6a03d9}; !- Handle

OS:Building,
  {c83b1de6-76d3-4a3a-b3b4-06ee1835b892}, !- Handle
  Building 1,                             !- Name
  ,                                       !- Building Sector Type
  ,                                       !- North Axis {deg}
  ,                                       !- Nominal Floor to Floor Height {m}
  ,                                       !- Space Type Name
  ,                                       !- Default Construction Set Name
  ;                                       !- Default Schedule Set Name

OS:BuildingStory,
  {f2666f9e-20e5-4a82-885f-f2fb4d576a0f}, !- Handle
  Level 1,                                !- Name
  ,                                       !- Nominal Z Coordinate {m}
  ,                                       !- Nominal Floor to Floor Height {m}
  ,                                       !- Default Construction Set Name
  ,                                       !- Default Schedule Set Name
  ;                                       !- Group Rendering Name

OS:BuildingStory,
  {31618a75-817c-4abe-af60-8e27fbd4ca38}, !- Handle
  Level 2,                                !- Name
  ,                                       !- Nominal Z Coordinate {m}
  3.048,                                  !- Nominal Floor to Floor Height {m}
  ,                                       !- Default Construction Set Name
  ,                                       !- Default Schedule Set Name
  ;                                       !- Group Rendering Name

OS:BuildingStory,
  {ee63ada1-7e8e-4c27-9d3f-d4e5a40015e6}, !- Handle
  Roof Level,                             !- Name
  ,                                       !- Nominal Z Coordinate {m}
  9.144,                                  !- Nominal Floor to Floor Height {m}
  ,                                       !- Default Construction Set Name
  ,                                       !- Default Schedule Set Name
  ;                                       !- Group Rendering Name

OS:Space,
  {4b2ba109-d8b1-4207-be8c-b662e5d07bbf}, !- Handle
  sp-1-Occupied_Auditorium,               !- Name
  ,                                       !- Space Type Name
  ,                                       !- Default Construction Set Name
  ,                                       !- Default Schedule Set Name
  ,                                       !- Direction of Relative North {deg}
  ,                                       !- X Origin {m}
  ,                                       !- Y Origin {m}
  ,                                       !- Z Origin {m}
  {f2666f9e-20e5-4a82-885f-f2fb4d576a0f}, !- Building Story Name
  {8c84f7e2-9da3-4180-9852-5a8eb86ed15a}; !- Thermal Zone Name

OS:Surface,
  {10af33cf-5bc6-48cf-a6cc-6a8961de364a}, !- Handle
  Surface 1,                              !- Name
  Wall,                                   !- Surface Type
  ,                                       !- Construction Name
  {4b2ba109-d8b1-4207-be8c-b662e5d07bbf}, !- Space Name
  Outdoors,                               !- Outside Boundary Condition
  ,                                       !- Outside Boundary Condition Object
  SunExposed,                             !- Sun Exposure
  WindExposed,                            !- Wind Exposure
  ,                                       !- View Factor to Ground
  ,                                       !- Number of Vertices
  0, 0, -3.048,                           !- X,Y,Z Vertex 1 {m}
  0, 18.288, -3.048,                      !- X,Y,Z Vertex 2 {m}
  30.48, 18.288, 0,                       !- X,Y,Z Vertex 3 {m}
  30.48, 0, 0;                            !- X,Y,Z Vertex 4 {m}

OS:Surface,
  {e940e4bb-d612-4b96-9fe0-9e7cda0f3331}, !- Handle
  Surface 2,                              !- Name
  Wall,                                   !- Surface Type
  ,                                       !- Construction Name
  {4b2ba109-d8b1-4207-be8c-b662e5d07bbf}, !- Space Name
  Ground,                                 !- Outside Boundary Condition
  ,                                       !- Outside Boundary Condition Object
  NoSun,                                  !- Sun Exposure
  NoWind,                                 !- Wind Exposure
  ,                                       !- View Factor to Ground
  ,                                       !- Number of Vertices
  0, 0, -3.048,                           !- X,Y,Z Vertex 1 {m}
  0, 0, 0,                                !- X,Y,Z Vertex 2 {m}
  0, 18.288, 0,                           !- X,Y,Z Vertex 3 {m}
  0, 18.288, -3.048;                      !- X,Y,Z Vertex 4 {m}

OS:Surface,
  {7bc2dfdf-4907-47c6-96e7-e238b0b821e5}, !- Handle
  Surface 3,                              !- Name
  Wall,                                   !- Surface Type
  ,                                       !- Construction Name
  {4b2ba109-d8b1-4207-be8c-b662e5d07bbf}, !- Space Name
  Outdoors,                               !- Outside Boundary Condition
  ,                                       !- Outside Boundary Condition Object
  SunExposed,                             !- Sun Exposure
  WindExposed,                            !- Wind Exposure
  ,                                       !- View Factor to Ground
  ,                                       !- Number of Vertices
  0, 0, 0,                                !- X,Y,Z Vertex 1 {m}
  0, 0, 3.048,                            !- X,Y,Z Vertex 2 {m}
  0, 18.288, 3.048,                       !- X,Y,Z Vertex 3 {m}
  0, 18.288, 0;                           !- X,Y,Z Vertex 4 {m}

OS:Surface,
  {e4a6e578-d98f-47ae-9bd7-ab05f9edb870}, !- Handle
  Surface 4,                              !- Name
  Wall,                                   !- Surface Type
  ,                                       !- Construction Name
  {4b2ba109-d8b1-4207-be8c-b662e5d07bbf}, !- Space Name
  Ground,                                 !- Outside Boundary Condition
  ,                                       !- Outside Boundary Condition Object
  NoSun,                                  !- Sun Exposure
  NoWind,                                 !- Wind Exposure
  ,                                       !- View Factor to Ground
  ,                                       !- Number of Vertices
  0, 0, 0,                                !- X,Y,Z Vertex 1 {m}
  30.48, 0, 0,                            !- X,Y,Z Vertex 2 {m}
  30.48, 0, 3.048,                        !- X,Y,Z Vertex 3 {m}
  0, 0, 3.048;                            !- X,Y,Z Vertex 4 {m}

OS:Surface,
  {8149b99c-eed1-4bdc-be3b-c1e917575425}, !- Handle
  Surface 5,                              !- Name
  Wall,                                   !- Surface Type
  ,                                       !- Construction Name
  {4b2ba109-d8b1-4207-be8c-b662e5d07bbf}, !- Space Name
  Outdoors,                               !- Outside Boundary Condition
  ,                                       !- Outside Boundary Condition Object
  SunExposed,                             !- Sun Exposure
  WindExposed,                            !- Wind Exposure
  ,                                       !- View Factor to Ground
  ,                                       !- Number of Vertices
  0, 0, -3.048,                           !- X,Y,Z Vertex 1 {m}
  30.48, 0, 0,                            !- X,Y,Z Vertex 2 {m}
  0, 0, 0;                                !- X,Y,Z Vertex 3 {m}

OS:Surface,
  {4bf0d3cc-ee06-44b4-a8f0-693babdfa8ec}, !- Handle
  Surface 6,                              !- Name
  Wall,                                   !- Surface Type
  ,                                       !- Construction Name
  {4b2ba109-d8b1-4207-be8c-b662e5d07bbf}, !- Space Name
  Outdoors,                               !- Outside Boundary Condition
  ,                                       !- Outside Boundary Condition Object
  SunExposed,                             !- Sun Exposure
  WindExposed,                            !- Wind Exposure
  ,                                       !- View Factor to Ground
  ,                                       !- Number of Vertices
  30.48, 0, 0,                            !- X,Y,Z Vertex 1 {m}
  30.48, 18.288, 0,                       !- X,Y,Z Vertex 2 {m}
  30.48, 18.288, 3.048,                   !- X,Y,Z Vertex 3 {m}
  30.48, 0, 3.048;                        !- X,Y,Z Vertex 4 {m}

OS:Surface,
  {0ea8aa6f-16de-4c3e-b90a-72be3ffd75fe}, !- Handle
  Surface 7,                              !- Name
  Wall,                                   !- Surface Type
  ,                                       !- Construction Name
  {4b2ba109-d8b1-4207-be8c-b662e5d07bbf}, !- Space Name
  Outdoors,                               !- Outside Boundary Condition
  ,                                       !- Outside Boundary Condition Object
  SunExposed,                             !- Sun Exposure
  WindExposed,                            !- Wind Exposure
  ,                                       !- View Factor to Ground
  ,                                       !- Number of Vertices
  30.48, 18.288, 0,                       !- X,Y,Z Vertex 1 {m}
  0, 18.288, 0,                           !- X,Y,Z Vertex 2 {m}
  0, 18.288, 3.048,                       !- X,Y,Z Vertex 3 {m}
  30.48, 18.288, 3.048;                   !- X,Y,Z Vertex 4 {m}

OS:Surface,
  {1400177e-39cf-453d-94a6-f099329856a2}, !- Handle
  Surface 8,                              !- Name
  Wall,                                   !- Surface Type
  ,                                       !- Construction Name
  {4b2ba109-d8b1-4207-be8c-b662e5d07bbf}, !- Space Name
  Ground,                                 !- Outside Boundary Condition
  ,                                       !- Outside Boundary Condition Object
  NoSun,                                  !- Sun Exposure
  NoWind,                                 !- Wind Exposure
  ,                                       !- View Factor to Ground
  ,                                       !- Number of Vertices
  30.48, 18.288, 0,                       !- X,Y,Z Vertex 1 {m}
  0, 18.288, -3.048,                      !- X,Y,Z Vertex 2 {m}
  0, 18.288, 0;                           !- X,Y,Z Vertex 3 {m}

OS:Surface,
  {f1891a09-96ea-46d5-b7c6-b943a16fcc02}, !- Handle
  Surface 9,                              !- Name
  RoofCeiling,                            !- Surface Type
  ,                                       !- Construction Name
  {4b2ba109-d8b1-4207-be8c-b662e5d07bbf}, !- Space Name
  Surface,                                !- Outside Boundary Condition
  {e6fb70aa-e904-44e5-aef2-c435e35217cc}, !- Outside Boundary Condition Object
  NoSun,                                  !- Sun Exposure
  NoWind,                                 !- Wind Exposure
  ,                                       !- View Factor to Ground
  ,                                       !- Number of Vertices
  0, 0, 3.048,                            !- X,Y,Z Vertex 1 {m}
  30.48, 0, 3.048,                        !- X,Y,Z Vertex 2 {m}
  30.48, 18.288, 3.048,                   !- X,Y,Z Vertex 3 {m}
  0, 18.288, 3.048;                       !- X,Y,Z Vertex 4 {m}

OS:Space,
  {63e82949-e529-4880-bb58-bdbb3342f425}, !- Handle
  sp-2-Unoccupied_Auditorium,             !- Name
  ,                                       !- Space Type Name
  ,                                       !- Default Construction Set Name
  ,                                       !- Default Schedule Set Name
  ,                                       !- Direction of Relative North {deg}
  ,                                       !- X Origin {m}
  ,                                       !- Y Origin {m}
  ,                                       !- Z Origin {m}
  {31618a75-817c-4abe-af60-8e27fbd4ca38}, !- Building Story Name
  {4af525fc-8a3c-4bb2-98d6-55e89150583b}; !- Thermal Zone Name

OS:Surface,
  {e6fb70aa-e904-44e5-aef2-c435e35217cc}, !- Handle
  Surface 10,                             !- Name
  Floor,                                  !- Surface Type
  ,                                       !- Construction Name
  {63e82949-e529-4880-bb58-bdbb3342f425}, !- Space Name
  Surface,                                !- Outside Boundary Condition
  {f1891a09-96ea-46d5-b7c6-b943a16fcc02}, !- Outside Boundary Condition Object
  NoSun,                                  !- Sun Exposure
  NoWind,                                 !- Wind Exposure
  ,                                       !- View Factor to Ground
  ,                                       !- Number of Vertices
  0, 0, 3.048,                            !- X,Y,Z Vertex 1 {m}
  0, 18.288, 3.048,                       !- X,Y,Z Vertex 2 {m}
  30.48, 18.288, 3.048,                   !- X,Y,Z Vertex 3 {m}
  30.48, 0, 3.048;                        !- X,Y,Z Vertex 4 {m}

OS:Surface,
  {4011a5ae-e9f4-4ae9-b85f-f7891db6dde4}, !- Handle
  Surface 11,                             !- Name
  Wall,                                   !- Surface Type
  ,                                       !- Construction Name
  {63e82949-e529-4880-bb58-bdbb3342f425}, !- Space Name
  Outdoors,                               !- Outside Boundary Condition
  ,                                       !- Outside Boundary Condition Object
  SunExposed,                             !- Sun Exposure
  WindExposed,                            !- Wind Exposure
  ,                                       !- View Factor to Ground
  ,                                       !- Number of Vertices
  0, 0, 3.048,                            !- X,Y,Z Vertex 1 {m}
  0, 0, 9.144,                            !- X,Y,Z Vertex 2 {m}
  0, 18.288, 9.144,                       !- X,Y,Z Vertex 3 {m}
  0, 18.288, 3.048;                       !- X,Y,Z Vertex 4 {m}

OS:Surface,
  {8fd7896b-36e3-4f69-933b-bb9402c2d45a}, !- Handle
  Surface 12,                             !- Name
  Wall,                                   !- Surface Type
  ,                                       !- Construction Name
  {63e82949-e529-4880-bb58-bdbb3342f425}, !- Space Name
  Outdoors,                               !- Outside Boundary Condition
  ,                                       !- Outside Boundary Condition Object
  SunExposed,                             !- Sun Exposure
  WindExposed,                            !- Wind Exposure
  ,                                       !- View Factor to Ground
  ,                                       !- Number of Vertices
  0, 0, 3.048,                            !- X,Y,Z Vertex 1 {m}
  30.48, 0, 3.048,                        !- X,Y,Z Vertex 2 {m}
  30.48, 0, 9.144,                        !- X,Y,Z Vertex 3 {m}
  0, 0, 9.144;                            !- X,Y,Z Vertex 4 {m}

OS:Surface,
  {8767773c-10f5-4af9-bd27-1a852c5600ad}, !- Handle
  Surface 13,                             !- Name
  Wall,                                   !- Surface Type
  ,                                       !- Construction Name
  {63e82949-e529-4880-bb58-bdbb3342f425}, !- Space Name
  Outdoors,                               !- Outside Boundary Condition
  ,                                       !- Outside Boundary Condition Object
  SunExposed,                             !- Sun Exposure
  WindExposed,                            !- Wind Exposure
  ,                                       !- View Factor to Ground
  ,                                       !- Number of Vertices
  30.48, 0, 3.048,                        !- X,Y,Z Vertex 1 {m}
  30.48, 18.288, 3.048,                   !- X,Y,Z Vertex 2 {m}
  30.48, 18.288, 9.144,                   !- X,Y,Z Vertex 3 {m}
  30.48, 0, 9.144;                        !- X,Y,Z Vertex 4 {m}

OS:Surface,
  {98416cc8-fe55-4c3c-a322-7a9f765d2b31}, !- Handle
  Surface 14,                             !- Name
  Wall,                                   !- Surface Type
  ,                                       !- Construction Name
  {4b2ba109-d8b1-4207-be8c-b662e5d07bbf}, !- Space Name
  Outdoors,                               !- Outside Boundary Condition
  ,                                       !- Outside Boundary Condition Object
  SunExposed,                             !- Sun Exposure
  WindExposed,                            !- Wind Exposure
  ,                                       !- View Factor to Ground
  ,                                       !- Number of Vertices
  30.48, 18.288, 3.048,                   !- X,Y,Z Vertex 1 {m}
  0, 18.288, 3.048,                       !- X,Y,Z Vertex 2 {m}
  0, 18.288, 9.144,                       !- X,Y,Z Vertex 3 {m}
  30.48, 18.288, 9.144;                   !- X,Y,Z Vertex 4 {m}

OS:Surface,
  {f2c75bf5-b192-465d-af2f-2e99194ba6ee}, !- Handle
  Surface 15,                             !- Name
  RoofCeiling,                            !- Surface Type
  ,                                       !- Construction Name
  {63e82949-e529-4880-bb58-bdbb3342f425}, !- Space Name
  Surface,                                !- Outside Boundary Condition
  {4128cbd0-2f86-4a3e-a214-e3865c006d6f}, !- Outside Boundary Condition Object
  NoSun,                                  !- Sun Exposure
  NoWind,                                 !- Wind Exposure
  ,                                       !- View Factor to Ground
  ,                                       !- Number of Vertices
  0, 0, 9.144,                            !- X,Y,Z Vertex 1 {m}
  30.48, 0, 9.144,                        !- X,Y,Z Vertex 2 {m}
  30.48, 18.288, 9.144,                   !- X,Y,Z Vertex 3 {m}
  0, 18.288, 9.144;                       !- X,Y,Z Vertex 4 {m}

OS:Space,
  {a6db31ad-3d29-4f8c-a75a-f7231c86c8ed}, !- Handle
  sp-3-Roof_Void,                         !- Name
  ,                                       !- Space Type Name
  ,                                       !- Default Construction Set Name
  ,                                       !- Default Schedule Set Name
  ,                                       !- Direction of Relative North {deg}
  ,                                       !- X Origin {m}
  ,                                       !- Y Origin {m}
  ,                                       !- Z Origin {m}
  {31618a75-817c-4abe-af60-8e27fbd4ca38}, !- Building Story Name
  {54cf82bd-3122-4b07-a8ba-86b19e1370ac}; !- Thermal Zone Name

OS:Surface,
  {4128cbd0-2f86-4a3e-a214-e3865c006d6f}, !- Handle
  Surface 16,                             !- Name
  Floor,                                  !- Surface Type
  ,                                       !- Construction Name
  {a6db31ad-3d29-4f8c-a75a-f7231c86c8ed}, !- Space Name
  Surface,                                !- Outside Boundary Condition
  {f2c75bf5-b192-465d-af2f-2e99194ba6ee}, !- Outside Boundary Condition Object
  NoSun,                                  !- Sun Exposure
  NoWind,                                 !- Wind Exposure
  ,                                       !- View Factor to Ground
  ,                                       !- Number of Vertices
  0, 0, 9.144,                            !- X,Y,Z Vertex 1 {m}
  0, 18.288, 9.144,                       !- X,Y,Z Vertex 2 {m}
  30.48, 18.288, 9.144,                   !- X,Y,Z Vertex 3 {m}
  30.48, 0, 9.144;                        !- X,Y,Z Vertex 4 {m}

OS:Surface,
  {ce4ddad3-eee2-4dda-9d7b-61fcec847e06}, !- Handle
  Surface 17,                             !- Name
  Wall,                                   !- Surface Type
  ,                                       !- Construction Name
  {a6db31ad-3d29-4f8c-a75a-f7231c86c8ed}, !- Space Name
  Outdoors,                               !- Outside Boundary Condition
  ,                                       !- Outside Boundary Condition Object
  SunExposed,                             !- Sun Exposure
  WindExposed,                            !- Wind Exposure
  ,                                       !- View Factor to Ground
  ,                                       !- Number of Vertices
  0, 0, 9.144,                            !- X,Y,Z Vertex 1 {m}
  30.48, 0, 9.144,                        !- X,Y,Z Vertex 2 {m}
  8.6868, 0, 13.716;                      !- X,Y,Z Vertex 3 {m}

OS:Surface,
  {52b5f512-9343-4dbc-98d9-b1ec316202f9}, !- Handle
  Surface 18,                             !- Name
  Wall,                                   !- Surface Type
  ,                                       !- Construction Name
  {a6db31ad-3d29-4f8c-a75a-f7231c86c8ed}, !- Space Name
  Outdoors,                               !- Outside Boundary Condition
  ,                                       !- Outside Boundary Condition Object
  SunExposed,                             !- Sun Exposure
  WindExposed,                            !- Wind Exposure
  ,                                       !- View Factor to Ground
  ,                                       !- Number of Vertices
  30.48, 18.288, 9.144,                   !- X,Y,Z Vertex 1 {m}
  0, 18.288, 9.144,                       !- X,Y,Z Vertex 2 {m}
  8.6868, 18.288, 13.716;                 !- X,Y,Z Vertex 3 {m}

OS:Surface,
  {c4f3a926-54bb-42b6-bbe4-f9770161afea}, !- Handle
  Surface 19,                             !- Name
  RoofCeiling,                            !- Surface Type
  ,                                       !- Construction Name
  {a6db31ad-3d29-4f8c-a75a-f7231c86c8ed}, !- Space Name
  Outdoors,                               !- Outside Boundary Condition
  ,                                       !- Outside Boundary Condition Object
  SunExposed,                             !- Sun Exposure
  WindExposed,                            !- Wind Exposure
  ,                                       !- View Factor to Ground
  ,                                       !- Number of Vertices
  0, 0, 9.144,                            !- X,Y,Z Vertex 1 {m}
  8.6868, 0, 13.716,                      !- X,Y,Z Vertex 2 {m}
  8.6868, 18.288, 13.716,                 !- X,Y,Z Vertex 3 {m}
  0, 18.288, 9.144;                       !- X,Y,Z Vertex 4 {m}

OS:Surface,
  {9f321f83-98d9-4810-908a-c88c7e1f98dd}, !- Handle
  Surface 20,                             !- Name
  RoofCeiling,                            !- Surface Type
  ,                                       !- Construction Name
  {a6db31ad-3d29-4f8c-a75a-f7231c86c8ed}, !- Space Name
  Outdoors,                               !- Outside Boundary Condition
  ,                                       !- Outside Boundary Condition Object
  SunExposed,                             !- Sun Exposure
  WindExposed,                            !- Wind Exposure
  ,                                       !- View Factor to Ground
  ,                                       !- Number of Vertices
  8.6868, 0, 13.716,                      !- X,Y,Z Vertex 1 {m}
  30.48, 0, 9.144,                        !- X,Y,Z Vertex 2 {m}
  30.48, 18.288, 9.144,                   !- X,Y,Z Vertex 3 {m}
  8.6868, 18.288, 13.716;                 !- X,Y,Z Vertex 4 {m}

OS:ThermalZone,
  {8c84f7e2-9da3-4180-9852-5a8eb86ed15a}, !- Handle
  sp-1-Occupied_Auditorium,               !- Name
  ,                                       !- Multiplier
  ,                                       !- Ceiling Height {m}
  ,                                       !- Volume {m3}
  ,                                       !- Floor Area {m2}
  ,                                       !- Zone Inside Convection Algorithm
  ,                                       !- Zone Outside Convection Algorithm
  ,                                       !- Zone Conditioning Equipment List Name
  {c6e4aef8-ce0b-4431-9055-48d0804949de}, !- Zone Air Inlet Port List
  {5b99d93d-5b38-4116-95b8-7da2a6b15100}, !- Zone Air Exhaust Port List
  {80250043-1626-4076-a5bd-d875e22fd6ba}, !- Zone Air Node Name
  ,                                       !- Zone Return Air Node Name
  ,                                       !- Primary Daylighting Control Name
  ,                                       !- Fraction of Zone Controlled by Primary Daylighting Control
  ,                                       !- Secondary Daylighting Control Name
  ,                                       !- Fraction of Zone Controlled by Secondary Daylighting Control
  ,                                       !- Illuminance Map Name
  ,                                       !- Group Rendering Name
  ,                                       !- Thermostat Name
  No;                                     !- Use Ideal Air Loads

OS:Node,
  {c794f1f4-5e54-4fec-8286-6e6432e16203}, !- Handle
  Node 1,                                 !- Name
  {80250043-1626-4076-a5bd-d875e22fd6ba}, !- Inlet Port
  ;                                       !- Outlet Port

OS:Connection,
  {80250043-1626-4076-a5bd-d875e22fd6ba}, !- Handle
  {07cae1aa-eddf-4845-846a-f7602c1f150c}, !- Name
  {8c84f7e2-9da3-4180-9852-5a8eb86ed15a}, !- Source Object
  11,                                     !- Outlet Port
  {c794f1f4-5e54-4fec-8286-6e6432e16203}, !- Target Object
  2;                                      !- Inlet Port

OS:PortList,
  {c6e4aef8-ce0b-4431-9055-48d0804949de}, !- Handle
  Port List 1,                            !- Name
  {8c84f7e2-9da3-4180-9852-5a8eb86ed15a}; !- HVAC Component

OS:PortList,
  {5b99d93d-5b38-4116-95b8-7da2a6b15100}, !- Handle
  Port List 2,                            !- Name
  {8c84f7e2-9da3-4180-9852-5a8eb86ed15a}; !- HVAC Component

OS:Sizing:Zone,
  {67f16fa6-47ed-40ad-add3-ce53c826dfc6}, !- Handle
  {8c84f7e2-9da3-4180-9852-5a8eb86ed15a}, !- Zone or ZoneList Name
  14,                                     !- Zone Cooling Design Supply Air Temperature {C}
  40,                                     !- Zone Heating Design Supply Air Temperature {C}
  0.0085,                                 !- Zone Cooling Design Supply Air Humidity Ratio {kg-H2O/kg-air}
  0.008,                                  !- Zone Heating Design Supply Air Humidity Ratio {kg-H2O/kg-air}
  ,                                       !- Zone Heating Sizing Factor
  ,                                       !- Zone Cooling Sizing Factor
  DesignDay,                              !- Cooling Design Air Flow Method
  ,                                       !- Cooling Design Air Flow Rate {m3/s}
  ,                                       !- Cooling Minimum Air Flow per Zone Floor Area {m3/s-m2}
  ,                                       !- Cooling Minimum Air Flow {m3/s}
  ,                                       !- Cooling Minimum Air Flow Fraction
  DesignDay,                              !- Heating Design Air Flow Method
  ,                                       !- Heating Design Air Flow Rate {m3/s}
  ,                                       !- Heating Maximum Air Flow per Zone Floor Area {m3/s-m2}
  ,                                       !- Heating Maximum Air Flow {m3/s}
  ,                                       !- Heating Maximum Air Flow Fraction
  ,                                       !- Design Zone Air Distribution Effectiveness in Cooling Mode
  ;                                       !- Design Zone Air Distribution Effectiveness in Heating Mode

OS:ZoneHVAC:EquipmentList,
  {e08196a5-f6db-4797-a3f1-137328438061}, !- Handle
  Zone HVAC Equipment List 1,             !- Name
  {8c84f7e2-9da3-4180-9852-5a8eb86ed15a}; !- Thermal Zone

OS:ThermalZone,
  {4af525fc-8a3c-4bb2-98d6-55e89150583b}, !- Handle
  sp-2-Unoccupied_Auditorium,             !- Name
  ,                                       !- Multiplier
  ,                                       !- Ceiling Height {m}
  ,                                       !- Volume {m3}
  ,                                       !- Floor Area {m2}
  ,                                       !- Zone Inside Convection Algorithm
  ,                                       !- Zone Outside Convection Algorithm
  ,                                       !- Zone Conditioning Equipment List Name
  {365700a6-2b85-49cd-8af8-50aa9cbef43c}, !- Zone Air Inlet Port List
  {92d38602-51d8-4eae-9d95-995d0ff0928d}, !- Zone Air Exhaust Port List
  {62ed77b1-d717-4b12-963e-475da6cbaa0d}, !- Zone Air Node Name
  ,                                       !- Zone Return Air Node Name
  ,                                       !- Primary Daylighting Control Name
  ,                                       !- Fraction of Zone Controlled by Primary Daylighting Control
  ,                                       !- Secondary Daylighting Control Name
  ,                                       !- Fraction of Zone Controlled by Secondary Daylighting Control
  ,                                       !- Illuminance Map Name
  ,                                       !- Group Rendering Name
  ,                                       !- Thermostat Name
  No;                                     !- Use Ideal Air Loads

OS:Node,
  {7b833b2f-17f3-42ed-8f14-cd4c0d756c7d}, !- Handle
  Node 2,                                 !- Name
  {62ed77b1-d717-4b12-963e-475da6cbaa0d}, !- Inlet Port
  ;                                       !- Outlet Port

OS:Connection,
  {62ed77b1-d717-4b12-963e-475da6cbaa0d}, !- Handle
  {f44fef4d-491e-4645-afcb-c5b4ceef2a61}, !- Name
  {4af525fc-8a3c-4bb2-98d6-55e89150583b}, !- Source Object
  11,                                     !- Outlet Port
  {7b833b2f-17f3-42ed-8f14-cd4c0d756c7d}, !- Target Object
  2;                                      !- Inlet Port

OS:PortList,
  {365700a6-2b85-49cd-8af8-50aa9cbef43c}, !- Handle
  Port List 3,                            !- Name
  {4af525fc-8a3c-4bb2-98d6-55e89150583b}; !- HVAC Component

OS:PortList,
  {92d38602-51d8-4eae-9d95-995d0ff0928d}, !- Handle
  Port List 4,                            !- Name
  {4af525fc-8a3c-4bb2-98d6-55e89150583b}; !- HVAC Component

OS:Sizing:Zone,
  {f84b93d3-b5c8-4773-9319-5aef80b44ea3}, !- Handle
  {4af525fc-8a3c-4bb2-98d6-55e89150583b}, !- Zone or ZoneList Name
  14,                                     !- Zone Cooling Design Supply Air Temperature {C}