
OS:Version,
  {8e581ea7-c1d4-4f33-8788-dbb32b6a1ce2}, !- Handle
  1.12.2;                                 !- Version Identifier

OS:SpaceType,
  {0c52a9dd-a1b0-4e32-81f9-51effa320f07}, !- Handle
  189.1-2009 - Office - Lobby - CZ4-8,    !- Name
  ,                                       !- Default Construction Set Name
  {fd21ace8-08b6-4aa0-a532-e041ec7abd82}, !- Default Schedule Set Name
  {307a2781-3939-40a9-b32e-be2d5c11d5d5}, !- Group Rendering Name
  {81e514aa-c5c7-46dc-adda-4fc8efd2906b}, !- Design Specification Outdoor Air Object Name
  Office,                                 !- Standards Building Type
  Lobby;                                  !- Standards Space Type

OS:DefaultScheduleSet,
  {fd21ace8-08b6-4aa0-a532-e041ec7abd82}, !- Handle
  189.1-2009 - Office - Lobby - CZ4-8 Schedule Set, !- Name
  ,                                       !- Hours of Operation Schedule Name
  {3dbd6082-e70a-4f85-b3bc-91631bc5a9df}, !- Number of People Schedule Name
  {86e45f52-75c9-4b64-9102-71070d106e55}, !- People Activity Level Schedule Name
  {4978de16-f2d4-4597-90c7-aa289949aedc}, !- Lighting Schedule Name
  {7440ee43-1d28-4f5b-95c6-fb14c16fefa0}, !- Electric Equipment Schedule Name
  ,                                       !- Gas Equipment Schedule Name
  ,                                       !- Hot Water Equipment Schedule Name
  {87bbf9d8-45e1-49e6-b347-65037b7c0ca0}, !- Infiltration Schedule Name
  ,                                       !- Steam Equipment Schedule Name
  ;                                       !- Other Equipment Schedule Name

OS:Rendering:Color,
  {307a2781-3939-40a9-b32e-be2d5c11d5d5}, !- Handle
  Rendering Color 23,                     !- Name
  230,                                    !- Rendering Red Value
  157,                                    !- Rendering Green Value
  120;                                    !- Rendering Blue Value

OS:DesignSpecification:OutdoorAir,
  {81e514aa-c5c7-46dc-adda-4fc8efd2906b}, !- Handle
  189.1-2009 - Office - Lobby - CZ4-8 Ventilation, !- Name
  Sum,                                    !- Outdoor Air Method
  0.007079211648,                         !- Outdoor Air Flow per Person {m3/s-person}
  ,                                       !- Outdoor Air Flow per Floor Area {m3/s-m2}
  ,                                       !- Outdoor Air Flow Rate {m3/s}
  ,                                       !- Outdoor Air Flow Air Changes per Hour {1/hr}
  ;                                       !- Outdoor Air Flow Rate Fraction Schedule Name

OS:Schedule:Ruleset,
  {3dbd6082-e70a-4f85-b3bc-91631bc5a9df}, ! Handle
  Office Misc Occ,                        ! Name
  {ba31ec27-3383-43f0-8c86-9fd6382da6fe}, ! Schedule Type Limits Name
  {6712f878-1445-4962-ae5a-c5d42a1120b8}, ! Default Day Schedule Name
  {60a3812d-35f7-4373-8708-1a744d80995a}, ! Summer Design Day Schedule Name
  {1f88f374-c897-40ac-8044-4b31d1e3d915}; ! Winter Design Day Schedule Name

OS:Schedule:Day,
  {6712f878-1445-4962-ae5a-c5d42a1120b8}, ! Handle
  Office Bldg Occ Default Schedule 1,     ! Name
  {ba31ec27-3383-43f0-8c86-9fd6382da6fe}, ! Schedule Type Limits Name
  ,                                       ! Interpolate to Timestep
  6,                                      !- Hour 1
  0,                                      !- Minute 1
  0,                                      !- Value Until Time 1
  7,                                      !- Hour 2
  0,                                      !- Minute 2
  0.100000001490116,                      !- Value Until Time 2
  8,                                      !- Hour 3
  0,                                      !- Minute 3
  0.200000002980232,                      !- Value Until Time 3
  20,                                     !- Hour 4
  0,                                      !- Minute 4
  0.400000005960464,                      !- Value Until Time 4
  22,                                     !- Hour 5
  0,                                      !- Minute 5
  0.100000001490116,                      !- Value Until Time 5
  24,                                     !- Hour 6
  0,                                      !- Minute 6
  0.0500000007450581;                     !- Value Until Time 6

OS:Schedule:Day,
  {60a3812d-35f7-4373-8708-1a744d80995a}, ! Handle
  Office Bldg Occ Summer Design Day 1,    ! Name
  {ba31ec27-3383-43f0-8c86-9fd6382da6fe}, ! Schedule Type Limits Name
  ,                                       ! Interpolate to Timestep
  6,                                      ! Hour 1
  0,                                      ! Minute 1
  0,                                      ! Value Until Time 1
  22,                                     ! Hour 2
  0,                                      ! Minute 2
  1,                                      ! Value Until Time 2
  24,                                     ! Hour 3
  0,                                      ! Minute 3
  0.050000000000000003;                   ! Value Until Time 3

OS:Schedule:Day,
  {1f88f374-c897-40ac-8044-4b31d1e3d915}, ! Handle
  Office Bldg Occ Winter Design Day 1,    ! Name
  {ba31ec27-3383-43f0-8c86-9fd6382da6fe}, ! Schedule Type Limits Name
  ,                                       ! Interpolate to Timestep
  24,                                     ! Hour 1
  0,                                      ! Minute 1
  0;                                      ! Value Until Time 1

OS:Schedule:Rule,
  {3848154c-3c9f-4633-ba4d-b74c198877f7}, ! Handle
  Office Misc Occ Rule 1,                 ! Name
  {3dbd6082-e70a-4f85-b3bc-91631bc5a9df}, ! Schedule Ruleset Name
  0,                                      ! Rule Order
  {2273757e-5f34-42a7-92e1-2f4059df0f37}, ! Day Schedule Name
  Yes,                                    ! Apply Sunday
  No,                                     ! Apply Monday
  No,                                     ! Apply Tuesday
  No,                                     ! Apply Wednesday
  No,                                     ! Apply Thursday
  No,                                     ! Apply Friday
  No,                                     ! Apply Saturday
  ,                                       ! Apply Holiday
  DateRange,                              ! Date Specification Type
  1,                                      ! Start Month
  1,                                      ! Start Day
  12,                                     ! End Month
  31;                                     ! End Day

OS:Schedule:Rule,
  {0790cbd8-9564-4b96-aed0-52f7858a144a}, ! Handle
  Office Misc Occ Rule 2,                 ! Name
  {3dbd6082-e70a-4f85-b3bc-91631bc5a9df}, ! Schedule Ruleset Name
  1,                                      ! Rule Order
  {78ec9526-3dc2-4541-8fef-a7eef06d8a2e}, ! Day Schedule Name
  No,                                     ! Apply Sunday
  No,                                     ! Apply Monday
  No,                                     ! Apply Tuesday
  No,                                     ! Apply Wednesday
  No,                                     ! Apply Thursday
  No,                                     ! Apply Friday
  Yes,                                    ! Apply Saturday
  ,                                       ! Apply Holiday
  DateRange,                              ! Date Specification Type
  1,                                      ! Start Month
  1,                                      ! Start Day
  12,                                     ! End Month
  31;                                     ! End Day

OS:Schedule:Day,
  {2273757e-5f34-42a7-92e1-2f4059df0f37}, ! Handle
  Office Bldg Occ Rule 1 Day Schedule 1,  ! Name
  {ba31ec27-3383-43f0-8c86-9fd6382da6fe}, ! Schedule Type Limits Name
  ,                                       ! Interpolate to Timestep
  24,                                     ! Hour 1
  0,                                      ! Minute 1
  0;                                      ! Value Until Time 1

OS:Schedule:Day,
  {78ec9526-3dc2-4541-8fef-a7eef06d8a2e}, ! Handle
  Office Bldg Occ Rule 2 Day Schedule 1,  ! Name
  {ba31ec27-3383-43f0-8c86-9fd6382da6fe}, ! Schedule Type Limits Name
  ,                                       ! Interpolate to Timestep
  6,                                      !- Hour 1
  0,                                      !- Minute 1
  0,                                      !- Value Until Time 1
  8,                                      !- Hour 2
  0,                                      !- Minute 2
  0.100000001490116,                      !- Value Until Time 2
  14,                                     !- Hour 3
  0,                                      !- Minute 3
  0.25,                                   !- Value Until Time 3
  17,                                     !- Hour 4
  0,                                      !- Minute 4
  0.100000001490116,                      !- Value Until Time 4
  24,                                     !- Hour 5
  0,                                      !- Minute 5
  0;                                      !- Value Until Time 5

OS:Schedule:Ruleset,
  {86e45f52-75c9-4b64-9102-71070d106e55}, ! Handle
  Office Activity,                        ! Name
  {0460bb33-da03-4070-8234-a276a26c6059}, ! Schedule Type Limits Name
  {94710f33-4d0a-4090-a3e9-5a1bed0b782a}, ! Default Day Schedule Name
  {7ae1822f-75d7-4d43-9381-77246dbec6ab}, ! Summer Design Day Schedule Name
  {3f7b9b11-a1ce-46bc-be55-7c2e89f124b4}; ! Winter Design Day Schedule Name

OS:Schedule:Day,
  {94710f33-4d0a-4090-a3e9-5a1bed0b782a}, ! Handle
  Office Activity Default Schedule,       ! Name
  {0460bb33-da03-4070-8234-a276a26c6059}, ! Schedule Type Limits Name
  ,                                       ! Interpolate to Timestep
  24,                                     !- Hour 1
  0,                                      !- Minute 1
  132;                                    !- Value Until Time 1

OS:Schedule:Day,
  {7ae1822f-75d7-4d43-9381-77246dbec6ab}, ! Handle
  Office Activity Summer Design Day,      ! Name
  {0460bb33-da03-4070-8234-a276a26c6059}, ! Schedule Type Limits Name
  ,                                       ! Interpolate to Timestep
  24,                                     !- Hour 1
  0,                                      !- Minute 1
  132;                                    !- Value Until Time 1

OS:Schedule:Day,
  {3f7b9b11-a1ce-46bc-be55-7c2e89f124b4}, ! Handle
  Office Activity Winter Design Day,      ! Name
  {0460bb33-da03-4070-8234-a276a26c6059}, ! Schedule Type Limits Name
  ,                                       ! Interpolate to Timestep
  24,                                     !- Hour 1
  0,                                      !- Minute 1
  132;                                    !- Value Until Time 1

OS:Schedule:Ruleset,
  {4978de16-f2d4-4597-90c7-aa289949aedc}, ! Handle
  Office Bldg Light,                      ! Name
  {ba31ec27-3383-43f0-8c86-9fd6382da6fe}, ! Schedule Type Limits Name
  {f384145d-97a6-45c1-ac03-940feac725de}, ! Default Day Schedule Name
  {3794d3cc-792b-4741-9d08-961926cdcd8c}, ! Summer Design Day Schedule Name
  {254b4835-0b58-4ec3-ae19-3f02ac5c4b83}; ! Winter Design Day Schedule Name

OS:Schedule:Day,
  {f384145d-97a6-45c1-ac03-940feac725de}, ! Handle
  Office Bldg Light Default Schedule,     ! Name
  {ba31ec27-3383-43f0-8c86-9fd6382da6fe}, ! Schedule Type Limits Name
  ,                                       ! Interpolate to Timestep
  5,                                      !- Hour 1
  0,                                      !- Minute 1
  0.05,                                   !- Value Until Time 1
  7,                                      !- Hour 2
  0,                                      !- Minute 2
  0.1,                                    !- Value Until Time 2
  8,                                      !- Hour 3
  0,                                      !- Minute 3
  0.3,                                    !- Value Until Time 3
  17,                                     !- Hour 4
  0,                                      !- Minute 4
  0.9,                                    !- Value Until Time 4
  18,                                     !- Hour 5
  0,                                      !- Minute 5
  0.7,                                    !- Value Until Time 5
  20,                                     !- Hour 6
  0,                                      !- Minute 6
  0.5,                                    !- Value Until Time 6
  22,                                     !- Hour 7
  0,                                      !- Minute 7
  0.3,                                    !- Value Until Time 7
  23,                                     !- Hour 8
  0,                                      !- Minute 8
  0.1,                                    !- Value Until Time 8
  24,                                     !- Hour 9
  0,                                      !- Minute 9
  0.05;                                   !- Value Until Time 9

OS:Schedule:Day,
  {3794d3cc-792b-4741-9d08-961926cdcd8c}, ! Handle
  Office Bldg Light Summer Design Day,    ! Name
  {ba31ec27-3383-43f0-8c86-9fd6382da6fe}, ! Schedule Type Limits Name
  ,                                       ! Interpolate to Timestep
  24,                                     ! Hour 1
  0,                                      ! Minute 1
  1;                                      ! Value Until Time 1

OS:Schedule:Day,
  {254b4835-0b58-4ec3-ae19-3f02ac5c4b83}, ! Handle
  Office Bldg Light Winter Design Day,    ! Name
  {ba31ec27-3383-43f0-8c86-9fd6382da6fe}, ! Schedule Type Limits Name
  ,                                       ! Interpolate to Timestep
  24,                                     ! Hour 1
  0,                                      ! Minute 1
  0;                                      ! Value Until Time 1

OS:Schedule:Rule,
  {f73d93d6-a47b-437f-90ec-932d29e6831f}, ! Handle
  Office Bldg Light Rule 1,               ! Name
  {4978de16-f2d4-4597-90c7-aa289949aedc}, ! Schedule Ruleset Name
  0,                                      ! Rule Order
  {f6193a1a-2994-488d-864c-6c0904bc3fc5}, ! Day Schedule Name
  Yes,                                    ! Apply Sunday
  No,                                     ! Apply Monday
  No,                                     ! Apply Tuesday
  No,                                     ! Apply Wednesday
  No,                                     ! Apply Thursday
  No,                                     ! Apply Friday
  No,                                     ! Apply Saturday
  ,                                       ! Apply Holiday
  DateRange,                              ! Date Specification Type
  1,                                      ! Start Month
  1,                                      ! Start Day
  12,                                     ! End Month
  31;                                     ! End Day

OS:Schedule:Rule,
  {b1c3f319-f307-4125-bf06-7229ef9c0281}, ! Handle
  Office Bldg Light Rule 2,               ! Name
  {4978de16-f2d4-4597-90c7-aa289949aedc}, ! Schedule Ruleset Name
  1,                                      ! Rule Order
  {843d2b55-dbd1-461c-a9e5-cb94d9023116}, ! Day Schedule Name
  No,                                     ! Apply Sunday
  No,                                     ! Apply Monday
  No,                                     ! Apply Tuesday
  No,                                     ! Apply Wednesday
  No,                                     ! Apply Thursday
  No,                                     ! Apply Friday
  Yes,                                    ! Apply Saturday
  ,                                       ! Apply Holiday
  DateRange,                              ! Date Specification Type
  1,                                      ! Start Month
  1,                                      ! Start Day
  12,                                     ! End Month
  31;                                     ! End Day

OS:Schedule:Day,
  {f6193a1a-2994-488d-864c-6c0904bc3fc5}, ! Handle
  Office Bldg Light Rule 1 Day Schedule,  ! Name
  {ba31ec27-3383-43f0-8c86-9fd6382da6fe}, ! Schedule Type Limits Name
  ,                                       ! Interpolate to Timestep
  24,                                     ! Hour 1
  0,                                      ! Minute 1
  0.050000000000000003;                   ! Value Until Time 1

OS:Schedule:Day,
  {843d2b55-dbd1-461c-a9e5-cb94d9023116}, ! Handle
  Office Bldg Light Rule 2 Day Schedule,  ! Name
  {ba31ec27-3383-43f0-8c86-9fd6382da6fe}, ! Schedule Type Limits Name
  ,                                       ! Interpolate to Timestep
  6,                                      ! Hour 1
  0,                                      ! Minute 1
  0.050000000000000003,                   ! Value Until Time 1
  8,                                      ! Hour 2
  0,                                      ! Minute 2
  0.10000000000000001,                    ! Value Until Time 2
  14,                                     ! Hour 3
  0,                                      ! Minute 3
  0.5,                                    ! Value Until Time 3
  17,                                     ! Hour 4
  0,                                      ! Minute 4
  0.14999999999999999,                    ! Value Until Time 4
  24,                                     ! Hour 5
  0,                                      ! Minute 5
  0.050000000000000003;                   ! Value Until Time 5

OS:Schedule:Ruleset,
  {7440ee43-1d28-4f5b-95c6-fb14c16fefa0}, ! Handle
  Office Bldg Equip,                      ! Name
  {ba31ec27-3383-43f0-8c86-9fd6382da6fe}, ! Schedule Type Limits Name
  {2ff00844-97d1-4045-84bc-b4cc0897119f}, ! Default Day Schedule Name
  {98fe11c7-f991-4f38-b83f-a4ef21b4b174}, ! Summer Design Day Schedule Name
  {701427e6-26de-48a7-9433-688ada2e8542}; ! Winter Design Day Schedule Name

OS:Schedule:Day,
  {2ff00844-97d1-4045-84bc-b4cc0897119f}, ! Handle
  Office Bldg Equip Default Schedule,     ! Name
  {ba31ec27-3383-43f0-8c86-9fd6382da6fe}, ! Schedule Type Limits Name
  ,                                       ! Interpolate to Timestep
  8,                                      !- Hour 1
  0,                                      !- Minute 1
  0.4,                                    !- Value Until Time 1
  12,                                     !- Hour 2
  0,                                      !- Minute 2
  0.9,                                    !- Value Until Time 2
  13,                                     !- Hour 3
  0,                                      !- Minute 3
  0.8,                                    !- Value Until Time 3
  17,                                     !- Hour 4
  0,                                      !- Minute 4
  0.9,                                    !- Value Until Time 4
  18,                                     !- Hour 5
  0,                                      !- Minute 5
  0.8,                                    !- Value Until Time 5
  20,                                     !- Hour 6
  0,                                      !- Minute 6
  0.6,                                    !- Value Until Time 6
  22,                                     !- Hour 7
  0,                                      !- Minute 7
  0.5,                                    !- Value Until Time 7
  24,                                     !- Hour 8
  0,                                      !- Minute 8
  0.4;                                    !- Value Until Time 8

OS:Schedule:Day,
  {98fe11c7-f991-4f38-b83f-a4ef21b4b174}, ! Handle
  Office Bldg Equip Summer Design Day,    ! Name
  {ba31ec27-3383-43f0-8c86-9fd6382da6fe}, ! Schedule Type Limits Name
  ,                                       ! Interpolate to Timestep
  24,                                     ! Hour 1
  0,                                      ! Minute 1
  1;                                      ! Value Until Time 1

OS:Schedule:Day,
  {701427e6-26de-48a7-9433-688ada2e8542}, ! Handle
  Office Bldg Equip Winter Design Day,    ! Name
  {ba31ec27-3383-43f0-8c86-9fd6382da6fe}, ! Schedule Type Limits Name
  ,                                       ! Interpolate to Timestep
  24,                                     ! Hour 1
  0,                                      ! Minute 1
  0;                                      ! Value Until Time 1

OS:Schedule:Rule,
  {45b411b3-14bf-4175-a733-2585fb8269bb}, ! Handle
  Office Bldg Equip Rule 1,               ! Name
  {7440ee43-1d28-4f5b-95c6-fb14c16fefa0}, ! Schedule Ruleset Name
  0,                                      ! Rule Order
  {ed573478-69ef-42b5-b48e-333a43600e3e}, ! Day Schedule Name
  Yes,                                    ! Apply Sunday
  No,                                     ! Apply Monday
  No,                                     ! Apply Tuesday
  No,                                     ! Apply Wednesday
  No,                                     ! Apply Thursday
  No,                                     ! Apply Friday
  No,                                     ! Apply Saturday
  ,                                       ! Apply Holiday
  DateRange,                              ! Date Specification Type
  1,                                      ! Start Month
  1,                                      ! Start Day
  12,                                     ! End Month
  31;                                     ! End Day

OS:Schedule:Rule,
  {6a8225cc-4efd-4f6b-b381-c7b47e791afa}, ! Handle
  Office Bldg Equip Rule 2,               ! Name
  {7440ee43-1d28-4f5b-95c6-fb14c16fefa0}, ! Schedule Ruleset Name
  1,                                      ! Rule Order
  {0b920861-bc40-4deb-801f-e6b56ad005ea}, ! Day Schedule Name
  No,                                     ! Apply Sunday
  No,                                     ! Apply Monday
  No,                                     ! Apply Tuesday
  No,                                     ! Apply Wednesday
  No,                                     ! Apply Thursday
  No,                                     ! Apply Friday
  Yes,                                    ! Apply Saturday
  ,                                       ! Apply Holiday
  DateRange,                              ! Date Specification Type
  1,                                      ! Start Month
  1,                                      ! Start Day
  12,                                     ! End Month
  31;                                     ! End Day

OS:Schedule:Day,
  {ed573478-69ef-42b5-b48e-333a43600e3e}, ! Handle
  Office Bldg Equip Rule 1 Day Schedule,  ! Name
  {ba31ec27-3383-43f0-8c86-9fd6382da6fe}, ! Schedule Type Limits Name
  ,                                       ! Interpolate to Timestep
  24,                                     ! Hour 1
  0,                                      ! Minute 1
  0.29999999999999999;                    ! Value Until Time 1

OS:Schedule:Day,
  {0b920861-bc40-4deb-801f-e6b56ad005ea}, ! Handle
  Office Bldg Equip Rule 2 Day Schedule,  ! Name
  {ba31ec27-3383-43f0-8c86-9fd6382da6fe}, ! Schedule Type Limits Name
  ,                                       ! Interpolate to Timestep
  6,                                      ! Hour 1
  0,                                      ! Minute 1
  0.29999999999999999,                    ! Value Until Time 1
  8,                                      ! Hour 2
  0,                                      ! Minute 2
  0.40000000000000002,                    ! Value Until Time 2
  14,                                     ! Hour 3
  0,                                      ! Minute 3
  0.5,                                    ! Value Until Time 3
  17,                                     ! Hour 4
  0,                                      ! Minute 4
  0.34999999999999998,                    ! Value Until Time 4
  24,                                     ! Hour 5
  0,                                      ! Minute 5
  0.29999999999999999;                    ! Value Until Time 5

OS:Schedule:Ruleset,
  {87bbf9d8-45e1-49e6-b347-65037b7c0ca0}, ! Handle
  Office Infil Quarter On,                ! Name
  {ba31ec27-3383-43f0-8c86-9fd6382da6fe}, ! Schedule Type Limits Name
  {4269e8fa-9814-45e3-aad6-32107cff3d18}, ! Default Day Schedule Name
  {4ef047cf-1b6a-4f20-a79e-a4210c69021e}, ! Summer Design Day Schedule Name
  {db3f4437-e1bc-4b92-b301-36b60e3bdd6f}; ! Winter Design Day Schedule Name

OS:Schedule:Day,
  {4269e8fa-9814-45e3-aad6-32107cff3d18}, ! Handle
  Office Infil Quarter On Default Schedule, ! Name
  {ba31ec27-3383-43f0-8c86-9fd6382da6fe}, ! Schedule Type Limits Name
  ,                                       ! Interpolate to Timestep
  6,                                      !- Hour 1
  0,                                      !- Minute 1
  1,                                      !- Value Until Time 1
  22,                                     !- Hour 2
  0,                                      !- Minute 2
  0.25,                                   !- Value Until Time 2
  24,                                     !- Hour 3
  0,                                      !- Minute 3
  1;                                      !- Value Until Time 3

OS:Schedule:Day,
  {4ef047cf-1b6a-4f20-a79e-a4210c69021e}, ! Handle
  Office Infil Quarter On Summer Design Day, ! Name
  {ba31ec27-3383-43f0-8c86-9fd6382da6fe}, ! Schedule Type Limits Name
  ,                                       ! Interpolate to Timestep
  6,                                      ! Hour 1
  0,                                      ! Minute 1
  1,                                      ! Value Until Time 1
  22,                                     ! Hour 2
  0,                                      ! Minute 2
  0.25,                                   ! Value Until Time 2
  24,                                     ! Hour 3
  0,                                      ! Minute 3
  1;                                      ! Value Until Time 3

OS:Schedule:Day,
  {db3f4437-e1bc-4b92-b301-36b60e3bdd6f}, ! Handle
  Office Infil Quarter On Winter Design Day, ! Name
  {ba31ec27-3383-43f0-8c86-9fd6382da6fe}, ! Schedule Type Limits Name
  ,                                       ! Interpolate to Timestep
  6,                                      ! Hour 1
  0,                                      ! Minute 1
  1,                                      ! Value Until Time 1
  18,                                     ! Hour 2
  0,                                      ! Minute 2
  0.25,                                   ! Value Until Time 2
  24,                                     ! Hour 3
  0,                                      ! Minute 3
  1;                                      ! Value Until Time 3

OS:Schedule:Rule,
  {c4cd8cac-263d-415f-afb7-cf189c95d43d}, ! Handle
  Office Infil Quarter On Rule 1,         ! Name
  {87bbf9d8-45e1-49e6-b347-65037b7c0ca0}, ! Schedule Ruleset Name
  0,                                      ! Rule Order
  {efd90a32-9d4c-4c71-8934-a8d2271e9563}, ! Day Schedule Name
  Yes,                                    ! Apply Sunday
  No,                                     ! Apply Monday
  No,                                     ! Apply Tuesday
  No,                                     ! Apply Wednesday
  No,                                     ! Apply Thursday
  No,                                     ! Apply Friday
  No,                                     ! Apply Saturday
  ,                                       ! Apply Holiday
  DateRange,                              ! Date Specification Type
  1,                                      ! Start Month
  1,                                      ! Start Day
  12,                                     ! End Month
  31;                                     ! End Day

OS:Schedule:Rule,
  {bef011f6-7804-482e-9072-4c60e3b3e116}, ! Handle
  Office Infil Quarter On Rule 2,         ! Name
  {87bbf9d8-45e1-49e6-b347-65037b7c0ca0}, ! Schedule Ruleset Name
  1,                                      ! Rule Order
  {740f2b58-e2f8-44f1-bcb9-b4c03175d5c6}, ! Day Schedule Name
  No,                                     ! Apply Sunday
  No,                                     ! Apply Monday
  No,                                     ! Apply Tuesday
  No,                                     ! Apply Wednesday
  No,                                     ! Apply Thursday
  No,                                     ! Apply Friday
  Yes,                                    ! Apply Saturday
  ,                                       ! Apply Holiday
  DateRange,                              ! Date Specification Type
  1,                                      ! Start Month
  1,                                      ! Start Day
  12,                                     ! End Month
  31;                                     ! End Day

OS:Schedule:Day,
  {efd90a32-9d4c-4c71-8934-a8d2271e9563}, ! Handle
  Office Infil Quarter On Rule 1 Day Schedule, ! Name
  {ba31ec27-3383-43f0-8c86-9fd6382da6fe}, ! Schedule Type Limits Name
  ,                                       ! Interpolate to Timestep
  24,                                     ! Hour 1
  0,                                      ! Minute 1
  1;                                      ! Value Until Time 1

OS:Schedule:Day,
  {740f2b58-e2f8-44f1-bcb9-b4c03175d5c6}, ! Handle
  Office Infil Quarter On Rule 2 Day Schedule, ! Name
  {ba31ec27-3383-43f0-8c86-9fd6382da6fe}, ! Schedule Type Limits Name
  ,                                       ! Interpolate to Timestep
  6,                                      ! Hour 1
  0,                                      ! Minute 1
  1,                                      ! Value Until Time 1
  18,                                     ! Hour 2
  0,                                      ! Minute 2
  0.25,                                   ! Value Until Time 2
  24,                                     ! Hour 3
  0,                                      ! Minute 3
  1;                                      ! Value Until Time 3

OS:ScheduleTypeLimits,
  {ba31ec27-3383-43f0-8c86-9fd6382da6fe}, ! Handle
  Fraction,                               ! Name