
OS:Version,
  {02dcf580-17e7-4df9-bd86-b94eaf866632}, !- Handle
  1.9.0;                                  !- Version Identifier

OS:Facility,
  {d32c84a2-9e11-478a-89fc-a703b3b286c1}; !- Handle

OS:Building,
  {3029e9c7-7198-4111-94f0-1714e227dbef}, !- Handle
  Building 1,                             !- Name
  ,                                       !- Building Sector Type
  ,                                       !- North Axis {deg}
  ,                                       !- Nominal Floor to Floor Height {m}
  ,                                       !- Space Type Name
  ,                                       !- Default Construction Set Name
  ;                                       !- Default Schedule Set Name

OS:BuildingStory,
  {d1ee69f3-f023-4288-be00-77d9e4b620e7}, !- Handle
  Level 1,                                !- Name
  ,                                       !- Nominal Z Coordinate {m}
  ,                                       !- Nominal Floor to Floor Height {m}
  ,                                       !- Default Construction Set Name
  ,                                       !- Default Schedule Set Name
  ;                                       !- Group Rendering Name

OS:BuildingStory,
  {e9392bd8-4a8a-4670-9aa2-22245a25b87d}, !- Handle
  Level 2,                                !- Name
  ,                                       !- Nominal Z Coordinate {m}
  7,                                      !- Nominal Floor to Floor Height {m}
  ,                                       !- Default Construction Set Name
  ,                                       !- Default Schedule Set Name
  ;                                       !- Group Rendering Name

OS:Space,
  {e6b551e6-e42b-4941-957e-4ead480be116}, !- Handle
  Space_0_0,                              !- Name
  ,                                       !- Space Type Name
  ,                                       !- Default Construction Set Name
  ,                                       !- Default Schedule Set Name
  ,                                       !- Direction of Relative North {deg}
  ,                                       !- X Origin {m}
  ,                                       !- Y Origin {m}
  ,                                       !- Z Origin {m}
  {d1ee69f3-f023-4288-be00-77d9e4b620e7}, !- Building Story Name
  {5a0e6dfd-439b-45f4-ba9f-e46a233e65a5}; !- Thermal Zone Name

OS:Surface,
  {1fb3b43c-6617-44c9-b448-3437bef95a6a}, !- Handle
  Surface 1,                              !- Name
  Floor,                                  !- Surface Type
  ,                                       !- Construction Name
  {e6b551e6-e42b-4941-957e-4ead480be116}, !- Space Name
  Ground,                                 !- Outside Boundary Condition
  ,                                       !- Outside Boundary Condition Object
  NoSun,                                  !- Sun Exposure
  NoWind,                                 !- Wind Exposure
  ,                                       !- View Factor to Ground
  ,                                       !- Number of Vertices
  -10, -14, 0,                            !- X,Y,Z Vertex 1 {m}
  -10, 14, 0,                             !- X,Y,Z Vertex 2 {m}
  10, 14, 0,                              !- X,Y,Z Vertex 3 {m}
  10, -14, 0;                             !- X,Y,Z Vertex 4 {m}

OS:Surface,
  {633b5724-91e8-45b0-aec1-a8ed20c4c8a1}, !- Handle
  Surface 2,                              !- Name
  Wall,                                   !- Surface Type
  ,                                       !- Construction Name
  {e6b551e6-e42b-4941-957e-4ead480be116}, !- Space Name
  Outdoors,                               !- Outside Boundary Condition
  ,                                       !- Outside Boundary Condition Object
  SunExposed,                             !- Sun Exposure
  WindExposed,                            !- Wind Exposure
  ,                                       !- View Factor to Ground
  ,                                       !- Number of Vertices
  -10, -14, 0,                            !- X,Y,Z Vertex 1 {m}
  -10, -14, 7,                            !- X,Y,Z Vertex 2 {m}
  -10, 14, 7,                             !- X,Y,Z Vertex 3 {m}
  -10, 14, 0;                             !- X,Y,Z Vertex 4 {m}

OS:Surface,
  {3cfaa744-95be-4fce-903e-6f43282cf4cc}, !- Handle
  Surface 3,                              !- Name
  Wall,                                   !- Surface Type
  ,                                       !- Construction Name
  {e6b551e6-e42b-4941-957e-4ead480be116}, !- Space Name
  Outdoors,                               !- Outside Boundary Condition
  ,                                       !- Outside Boundary Condition Object
  SunExposed,                             !- Sun Exposure
  WindExposed,                            !- Wind Exposure
  ,                                       !- View Factor to Ground
  ,                                       !- Number of Vertices
  -10, -14, 0,                            !- X,Y,Z Vertex 1 {m}
  10, -14, 0,                             !- X,Y,Z Vertex 2 {m}
  10, -14, 7,                             !- X,Y,Z Vertex 3 {m}
  -10, -14, 7;                            !- X,Y,Z Vertex 4 {m}

OS:Surface,
  {9d1e4b1a-52cc-4688-b9b1-b1889a9b8dd2}, !- Handle
  Surface 4,                              !- Name
  Wall,                                   !- Surface Type
  ,                                       !- Construction Name
  {e6b551e6-e42b-4941-957e-4ead480be116}, !- Space Name
  Surface,                                !- Outside Boundary Condition
  {067afe75-6d89-46ef-8812-e1c37f20e3fb}, !- Outside Boundary Condition Object
  NoSun,                                  !- Sun Exposure
  NoWind,                                 !- Wind Exposure
  ,                                       !- View Factor to Ground
  ,                                       !- Number of Vertices
  10, -14, 7,                             !- X,Y,Z Vertex 1 {m}
  10, -14, 0,                             !- X,Y,Z Vertex 2 {m}
  10, -5, 0,                              !- X,Y,Z Vertex 3 {m}
  10, -5, 7;                              !- X,Y,Z Vertex 4 {m}

OS:Surface,
  {66b5a6c0-69b7-46a7-a988-56fbe59184ac}, !- Handle
  Surface 5,                              !- Name
  Wall,                                   !- Surface Type
  ,                                       !- Construction Name
  {e6b551e6-e42b-4941-957e-4ead480be116}, !- Space Name
  Outdoors,                               !- Outside Boundary Condition
  ,                                       !- Outside Boundary Condition Object
  SunExposed,                             !- Sun Exposure
  WindExposed,                            !- Wind Exposure
  ,                                       !- View Factor to Ground
  ,                                       !- Number of Vertices
  10, 14, 0,                              !- X,Y,Z Vertex 1 {m}
  -10, 14, 0,                             !- X,Y,Z Vertex 2 {m}
  -10, 14, 7,                             !- X,Y,Z Vertex 3 {m}
  10, 14, 7;                              !- X,Y,Z Vertex 4 {m}

OS:Surface,
  {d3779055-99b3-4edd-9fdd-3641c7959db8}, !- Handle
  Surface 6,                              !- Name
  RoofCeiling,                            !- Surface Type
  ,                                       !- Construction Name
  {e6b551e6-e42b-4941-957e-4ead480be116}, !- Space Name
  Outdoors,                               !- Outside Boundary Condition
  ,                                       !- Outside Boundary Condition Object
  SunExposed,                             !- Sun Exposure
  WindExposed,                            !- Wind Exposure
  ,                                       !- View Factor to Ground
  ,                                       !- Number of Vertices
  -10, -14, 7,                            !- X,Y,Z Vertex 1 {m}
  10, -14, 7,                             !- X,Y,Z Vertex 2 {m}
  10, 14, 7,                              !- X,Y,Z Vertex 3 {m}
  -10, 14, 7;                             !- X,Y,Z Vertex 4 {m}

OS:Space,
  {e9fe981c-dad7-4928-be3c-595559f5319d}, !- Handle
  Space_2_0,                              !- Name
  ,                                       !- Space Type Name
  ,                                       !- Default Construction Set Name
  ,                                       !- Default Schedule Set Name
  ,                                       !- Direction of Relative North {deg}
  ,                                       !- X Origin {m}
  ,                                       !- Y Origin {m}
  ,                                       !- Z Origin {m}
  {d1ee69f3-f023-4288-be00-77d9e4b620e7}, !- Building Story Name
  {a66c4a6c-9867-4f6c-a4d4-3ee4caa17560}; !- Thermal Zone Name

OS:Surface,
  {1234d61b-2403-4496-b113-305d46720994}, !- Handle
  Surface 7,                              !- Name
  Floor,                                  !- Surface Type
  ,                                       !- Construction Name
  {e9fe981c-dad7-4928-be3c-595559f5319d}, !- Space Name
  Ground,                                 !- Outside Boundary Condition
  ,                                       !- Outside Boundary Condition Object
  NoSun,                                  !- Sun Exposure
  NoWind,                                 !- Wind Exposure
  ,                                       !- View Factor to Ground
  ,                                       !- Number of Vertices
  10, 5, 0,                               !- X,Y,Z Vertex 1 {m}
  10, 15, 0,                              !- X,Y,Z Vertex 2 {m}
  30, 15, 0,                              !- X,Y,Z Vertex 3 {m}
  30, 5, 0;                               !- X,Y,Z Vertex 4 {m}

OS:Surface,
  {a1d6efa8-2a0d-49ae-817a-7e6b59a0cd59}, !- Handle
  Surface 8,                              !- Name
  Wall,                                   !- Surface Type
  ,                                       !- Construction Name
  {e9fe981c-dad7-4928-be3c-595559f5319d}, !- Space Name
  Surface,                                !- Outside Boundary Condition
  {75ed28cf-0bea-4e40-a46e-5f4b3ecc083d}, !- Outside Boundary Condition Object
  NoSun,                                  !- Sun Exposure
  NoWind,                                 !- Wind Exposure
  ,                                       !- View Factor to Ground
  ,                                       !- Number of Vertices
  10, 14, 7,                              !- X,Y,Z Vertex 1 {m}
  10, 14, 0,                              !- X,Y,Z Vertex 2 {m}
  10, 5, 0,                               !- X,Y,Z Vertex 3 {m}
  10, 5, 7;                               !- X,Y,Z Vertex 4 {m}

OS:Surface,
  {c19e3e36-7318-4eaf-9f6f-4647dac47ab2}, !- Handle
  Surface 9,                              !- Name
  Wall,                                   !- Surface Type
  ,                                       !- Construction Name
  {e9fe981c-dad7-4928-be3c-595559f5319d}, !- Space Name
  Surface,                                !- Outside Boundary Condition
  {ea497d64-8f7b-469c-afec-3d0c12b7cda0}, !- Outside Boundary Condition Object
  NoSun,                                  !- Sun Exposure
  NoWind,                                 !- Wind Exposure
  ,                                       !- View Factor to Ground
  ,                                       !- Number of Vertices
  10, 5, 0,                               !- X,Y,Z Vertex 1 {m}
  30, 5, 0,                               !- X,Y,Z Vertex 2 {m}
  30, 5, 7,                               !- X,Y,Z Vertex 3 {m}
  10, 5, 7;                               !- X,Y,Z Vertex 4 {m}

OS:Surface,
  {3ecd89fe-6ee8-4baa-9852-3ace08b1ac5c}, !- Handle
  Surface 10,                             !- Name
  Wall,                                   !- Surface Type
  ,                                       !- Construction Name
  {e9fe981c-dad7-4928-be3c-595559f5319d}, !- Space Name
  Outdoors,                               !- Outside Boundary Condition
  ,                                       !- Outside Boundary Condition Object
  SunExposed,                             !- Sun Exposure
  WindExposed,                            !- Wind Exposure
  ,                                       !- View Factor to Ground
  ,                                       !- Number of Vertices
  30, 5, 0,                               !- X,Y,Z Vertex 1 {m}
  30, 15, 0,                              !- X,Y,Z Vertex 2 {m}
  30, 15, 7,                              !- X,Y,Z Vertex 3 {m}
  30, 5, 7;                               !- X,Y,Z Vertex 4 {m}

OS:Surface,
  {380d4e94-5ddd-4d27-81e8-3a585e437cd8}, !- Handle
  Surface 11,                             !- Name
  Wall,                                   !- Surface Type
  ,                                       !- Construction Name
  {e9fe981c-dad7-4928-be3c-595559f5319d}, !- Space Name
  Outdoors,                               !- Outside Boundary Condition
  ,                                       !- Outside Boundary Condition Object
  SunExposed,                             !- Sun Exposure
  WindExposed,                            !- Wind Exposure
  ,                                       !- View Factor to Ground
  ,                                       !- Number of Vertices
  30, 15, 0,                              !- X,Y,Z Vertex 1 {m}
  10, 15, 0,                              !- X,Y,Z Vertex 2 {m}
  10, 15, 7,                              !- X,Y,Z Vertex 3 {m}
  30, 15, 7;                              !- X,Y,Z Vertex 4 {m}

OS:Surface,
  {957cda27-5214-42a0-86e2-7d7b4ff080aa}, !- Handle
  Surface 12,                             !- Name
  RoofCeiling,                            !- Surface Type
  ,                                       !- Construction Name
  {e9fe981c-dad7-4928-be3c-595559f5319d}, !- Space Name
  Outdoors,                               !- Outside Boundary Condition
  ,                                       !- Outside Boundary Condition Object
  SunExposed,                             !- Sun Exposure
  WindExposed,                            !- Wind Exposure
  ,                                       !- View Factor to Ground
  ,                                       !- Number of Vertices
  10, 5, 7,                               !- X,Y,Z Vertex 1 {m}
  30, 5, 7,                               !- X,Y,Z Vertex 2 {m}
  30, 15, 7,                              !- X,Y,Z Vertex 3 {m}
  10, 15, 7;                              !- X,Y,Z Vertex 4 {m}

OS:Space,
  {fcc3f36b-bb65-47eb-bd27-579903f83fe5}, !- Handle
  Space_1_0,                              !- Name
  ,                                       !- Space Type Name
  ,                                       !- Default Construction Set Name
  ,                                       !- Default Schedule Set Name
  ,                                       !- Direction of Relative North {deg}
  ,                                       !- X Origin {m}
  ,                                       !- Y Origin {m}
  ,                                       !- Z Origin {m}
  {d1ee69f3-f023-4288-be00-77d9e4b620e7}, !- Building Story Name
  {1856ec2b-3595-47a2-993f-2ccdc17ad3a4}; !- Thermal Zone Name

OS:Surface,
  {b7e3e783-d1be-4905-bb21-09af7b9256f4}, !- Handle
  Surface 13,                             !- Name
  Floor,                                  !- Surface Type
  ,                                       !- Construction Name
  {fcc3f36b-bb65-47eb-bd27-579903f83fe5}, !- Space Name
  Ground,                                 !- Outside Boundary Condition
  ,                                       !- Outside Boundary Condition Object
  NoSun,                                  !- Sun Exposure
  NoWind,                                 !- Wind Exposure
  ,                                       !- View Factor to Ground
  ,                                       !- Number of Vertices
  10, -5, 0,                              !- X,Y,Z Vertex 1 {m}
  10, 5, 0,                               !- X,Y,Z Vertex 2 {m}
  30, 5, 0,                               !- X,Y,Z Vertex 3 {m}
  30, -5, 0;                              !- X,Y,Z Vertex 4 {m}

OS:Surface,
  {79ab8622-f7e6-45a0-bd8d-3e031499a2de}, !- Handle
  Surface 14,                             !- Name
  Wall,                                   !- Surface Type
  ,                                       !- Construction Name
  {fcc3f36b-bb65-47eb-bd27-579903f83fe5}, !- Space Name
  Surface,                                !- Outside Boundary Condition
  {0ff94c3e-c671-4694-af8a-f8b633d8e089}, !- Outside Boundary Condition Object
  NoSun,                                  !- Sun Exposure
  NoWind,                                 !- Wind Exposure
  ,                                       !- View Factor to Ground
  ,                                       !- Number of Vertices
  10, 5, 7,                               !- X,Y,Z Vertex 1 {m}
  10, 5, 0,                               !- X,Y,Z Vertex 2 {m}
  10, -5, 0,                              !- X,Y,Z Vertex 3 {m}
  10, -5, 7;                              !- X,Y,Z Vertex 4 {m}

OS:Surface,
  {0452ad8d-b2fc-48ea-9589-f3b96ea113e5}, !- Handle
  Surface 15,                             !- Name
  Wall,                                   !- Surface Type
  ,                                       !- Construction Name
  {fcc3f36b-bb65-47eb-bd27-579903f83fe5}, !- Space Name
  Surface,                                !- Outside Boundary Condition
  {63408dbb-6c67-497b-8dc9-730460fef7e7}, !- Outside Boundary Condition Object
  NoSun,                                  !- Sun Exposure
  NoWind,                                 !- Wind Exposure
  ,                                       !- View Factor to Ground
  ,                                       !- Number of Vertices
  10, -5, 0,                              !- X,Y,Z Vertex 1 {m}
  30, -5, 0,                              !- X,Y,Z Vertex 2 {m}
  30, -5, 7,                              !- X,Y,Z Vertex 3 {m}
  10, -5, 7;                              !- X,Y,Z Vertex 4 {m}

OS:Surface,
  {79cea6ef-97f9-4605-b243-22541a74fba2}, !- Handle
  Surface 16,                             !- Name
  Wall,                                   !- Surface Type
  ,                                       !- Construction Name
  {fcc3f36b-bb65-47eb-bd27-579903f83fe5}, !- Space Name
  Outdoors,                               !- Outside Boundary Condition
  ,                                       !- Outside Boundary Condition Object
  SunExposed,                             !- Sun Exposure
  WindExposed,                            !- Wind Exposure
  ,                                       !- View Factor to Ground
  ,                                       !- Number of Vertices
  30, -5, 0,                              !- X,Y,Z Vertex 1 {m}
  30, 5, 0,                               !- X,Y,Z Vertex 2 {m}
  30, 5, 7,                               !- X,Y,Z Vertex 3 {m}
  30, -5, 7;                              !- X,Y,Z Vertex 4 {m}

OS:Surface,
  {ea497d64-8f7b-469c-afec-3d0c12b7cda0}, !- Handle
  Surface 17,                             !- Name
  Wall,                                   !- Surface Type
  ,                                       !- Construction Name
  {fcc3f36b-bb65-47eb-bd27-579903f83fe5}, !- Space Name
  Surface,                                !- Outside Boundary Condition
  {c19e3e36-7318-4eaf-9f6f-4647dac47ab2}, !- Outside Boundary Condition Object
  NoSun,                                  !- Sun Exposure
  NoWind,                                 !- Wind Exposure
  ,                                       !- View Factor to Ground
  ,                                       !- Number of Vertices
  30, 5, 0,                               !- X,Y,Z Vertex 1 {m}
  10, 5, 0,                               !- X,Y,Z Vertex 2 {m}
  10, 5, 7,                               !- X,Y,Z Vertex 3 {m}
  30, 5, 7;                               !- X,Y,Z Vertex 4 {m}

OS:Surface,
  {86e6c453-e239-4f45-abb2-d459983f5f9f}, !- Handle
  Surface 18,                             !- Name
  RoofCeiling,                            !- Surface Type
  ,                                       !- Construction Name
  {fcc3f36b-bb65-47eb-bd27-579903f83fe5}, !- Space Name
  Outdoors,                               !- Outside Boundary Condition
  ,                                       !- Outside Boundary Condition Object
  SunExposed,                             !- Sun Exposure
  WindExposed,                            !- Wind Exposure
  ,                                       !- View Factor to Ground
  ,                                       !- Number of Vertices
  10, -5, 7,                              !- X,Y,Z Vertex 1 {m}
  30, -5, 7,                              !- X,Y,Z Vertex 2 {m}
  30, 5, 7,                               !- X,Y,Z Vertex 3 {m}
  10, 5, 7;                               !- X,Y,Z Vertex 4 {m}

OS:Space,
  {2feda6f6-cb97-4646-ab85-b412af03a44d}, !- Handle
  Space_3_0,                              !- Name
  ,                                       !- Space Type Name
  ,                                       !- Default Construction Set Name
  ,                                       !- Default Schedule Set Name
  ,                                       !- Direction of Relative North {deg}
  ,                                       !- X Origin {m}
  ,                                       !- Y Origin {m}
  ,                                       !- Z Origin {m}
  {d1ee69f3-f023-4288-be00-77d9e4b620e7}, !- Building Story Name
  {93b53aff-7679-43dc-8995-aa772c0d1ba2}; !- Thermal Zone Name

OS:Surface,
  {50412692-aa0d-41aa-9b8f-82f4079d55b1}, !- Handle
  Surface 19,                             !- Name
  Floor,                                  !- Surface Type
  ,                                       !- Construction Name
  {2feda6f6-cb97-4646-ab85-b412af03a44d}, !- Space Name
  Ground,                                 !- Outside Boundary Condition
  ,                                       !- Outside Boundary Condition Object
  NoSun,                                  !- Sun Exposure
  NoWind,                                 !- Wind Exposure
  ,                                       !- View Factor to Ground
  ,                                       !- Number of Vertices
  10, -15, 0,                             !- X,Y,Z Vertex 1 {m}
  10, -5, 0,                              !- X,Y,Z Vertex 2 {m}
  30, -5, 0,                              !- X,Y,Z Vertex 3 {m}
  30, -15, 0;                             !- X,Y,Z Vertex 4 {m}

OS:Surface,
  {067afe75-6d89-46ef-8812-e1c37f20e3fb}, !- Handle
  Surface 20,                             !- Name
  Wall,                                   !- Surface Type
  ,                                       !- Construction Name
  {2feda6f6-cb97-4646-ab85-b412af03a44d}, !- Space Name
  Surface,                                !- Outside Boundary Condition
  {9d1e4b1a-52cc-4688-b9b1-b1889a9b8dd2}, !- Outside Boundary Condition Object
  NoSun,                                  !- Sun Exposure
  NoWind,                                 !- Wind Exposure
  ,                                       !- View Factor to Ground
  ,                                       !- Number of Vertices
  10, -5, 7,                              !- X,Y,Z Vertex 1 {m}
  10, -5, 0,                              !- X,Y,Z Vertex 2 {m}
  10, -14, 0,                             !- X,Y,Z Vertex 3 {m}
  10, -14, 7;                             !- X,Y,Z Vertex 4 {m}

OS:Surface,
  {1f5833ed-1b67-4f34-9954-617c9050f047}, !- Handle
  Surface 21,                             !- Name
  Wall,                                   !- Surface Type
  ,                                       !- Construction Name
  {2feda6f6-cb97-4646-ab85-b412af03a44d}, !- Space Name
  Outdoors,                               !- Outside Boundary Condition
  ,                                       !- Outside Boundary Condition Object
  SunExposed,                             !- Sun Exposure
  WindExposed,                            !- Wind Exposure
  ,                                       !- View Factor to Ground
  ,                                       !- Number of Vertices
  10, -15, 0,                             !- X,Y,Z Vertex 1 {m}
  30, -15, 0,                             !- X,Y,Z Vertex 2 {m}
  30, -15, 7,                             !- X,Y,Z Vertex 3 {m}
  10, -15, 7;                             !- X,Y,Z Vertex 4 {m}

OS:Surface,
  {a85a8d80-cf1f-4505-82c9-3a6609d52d27}, !- Handle
  Surface 22,                             !- Name
  Wall,                                   !- Surface Type
  ,                                       !- Construction Name
  {2feda6f6-cb97-4646-ab85-b412af03a44d}, !- Space Name
  Outdoors,                               !- Outside Boundary Condition
  ,                                       !- Outside Boundary Condition Object
  SunExposed,                             !- Sun Exposure
  WindExposed,                            !- Wind Exposure
  ,                                       !- View Factor to Ground
  ,                                       !- Number of Vertices
  30, -15, 0,                             !- X,Y,Z Vertex 1 {m}
  30, -5, 0,                              !- X,Y,Z Vertex 2 {m}
  30, -5, 7,                              !- X,Y,Z Vertex 3 {m}
  30, -15, 7;                             !- X,Y,Z Vertex 4 {m}

OS:Surface,
  {63408dbb-6c67-497b-8dc9-730460fef7e7}, !- Handle
  Surface 23,                             !- Name
  Wall,                                   !- Surface Type
  ,                                       !- Construction Name
  {2feda6f6-cb97-4646-ab85-b412af03a44d}, !- Space Name
  Surface,                                !- Outside Boundary Condition
  {0452ad8d-b2fc-48ea-9589-f3b96ea113e5}, !- Outside Boundary Condition Object
  NoSun,                                  !- Sun Exposure
  NoWind,                                 !- Wind Exposure
  ,                                       !- View Factor to Ground
  ,                                       !- Number of Vertices
  30, -5, 0,                              !- X,Y,Z Vertex 1 {m}
  10, -5, 0,                              !- X,Y,Z Vertex 2 {m}
  10, -5, 7,                              !- X,Y,Z Vertex 3 {m}
  30, -5, 7;                              !- X,Y,Z Vertex 4 {m}

OS:Surface,
  {d95720c4-3988-4604-949a-80e7a63fd70a}, !- Handle
  Surface 24,                             !- Name
  RoofCeiling,                            !- Surface Type
  ,                                       !- Construction Name
  {2feda6f6-cb97-4646-ab85-b412af03a44d}, !- Space Name
  Outdoors,                               !- Outside Boundary Condition
  ,                                       !- Outside Boundary Condition Object
  SunExposed,                             !- Sun Exposure
  WindExposed,                            !- Wind Exposure
  ,                                       !- View Factor to Ground
  ,                                       !- Number of Vertices
  10, -15, 7,                             !- X,Y,Z Vertex 1 {m}
  30, -15, 7,                             !- X,Y,Z Vertex 2 {m}
  30, -5, 7,                              !- X,Y,Z Vertex 3 {m}
  10, -5, 7;                              !- X,Y,Z Vertex 4 {m}

OS:ThermalZone,
  {93b53aff-7679-43dc-8995-aa772c0d1ba2}, !- Handle
  Zone_3_0,                               !- Name
  ,                                       !- Multiplier
  ,                                       !- Ceiling Height {m}
  ,                                       !- Volume {m3}
  ,                                       !- Floor Area {m2}
  ,                                       !- Zone Inside Convection Algorithm
  ,                                       !- Zone Outside Convection Algorithm
  ,                                       !- Zone Conditioning Equipment List Name
  {e4c8ec52-b83d-4942-a2c0-97a75a14d828}, !- Zone Air Inlet Port List
  {180e6930-deaa-43a7-a227-685fb499736b}, !- Zone Air Exhaust Port List
  {55d756f3-d404-4734-a16d-0150b7a5aca1}, !- Zone Air Node Name
  ,                                       !- Zone Return Air Node Name
  ,                                       !- Primary Daylighting Control Name
  ,                                       !- Fraction of Zone Controlled by Primary Daylighting Control
  ,                                       !- Secondary Daylighting Control Name
  ,                                       !- Fraction of Zone Controlled by Secondary Daylighting Control
  ,                                       !- Illuminance Map Name
  ,                                       !- Group Rendering Name
  ,                                       !- Thermostat Name
  No;                                     !- Use Ideal Air Loads

OS:Node,
  {d9872b30-f16b-4339-a994-32393b871dfc}, !- Handle
  Node 1,                                 !- Name
  {55d756f3-d404-4734-a16d-0150b7a5aca1}, !- Inlet Port
  ;                                       !- Outlet Port

OS:Connection,
  {55d756f3-d404-4734-a16d-0150b7a5aca1}, !- Handle
  {14a766e5-5dc3-47b0-8a1d-69aaea061299}, !- Name
  {93b53aff-7679-43dc-8995-aa772c0d1ba2}, !- Source Object
  11,                                     !- Outlet Port
  {d9872b30-f16b-4339-a994-32393b871dfc}, !- Target Object
  2;                                      !- Inlet Port

OS:PortList,
  {e4c8ec52-b83d-4942-a2c0-97a75a14d828}, !- Handle
  Port List 1,                            !- Name
  {93b53aff-7679-43dc-8995-aa772c0d1ba2}; !- HVAC Component

OS:PortList,
  {180e6930-deaa-43a7-a227-685fb499736b}, !- Handle
  Port List 2,                            !- Name
  {93b53aff-7679-43dc-8995-aa772c0d1ba2}; !- HVAC Component

OS:Sizing:Zone,
  {13a1748f-3f85-4c09-a5a0-7891e877c8d0}, !- Handle
  {93b53aff-7679-43dc-8995-aa772c0d1ba2}, !- Zone or ZoneList Name
  14,                                     !- Zone Cooling Design Supply Air Temperature {C}
  40,                                     !- Zone Heating Design Supply Air Temperature {C}