
OS:Version,
  {13993fab-be44-4ee5-b42e-28510a44dbfe}, !- Handle
  1.9.0;                                  !- Version Identifier

OS:Facility,
  {4b97a12f-f26d-426a-a419-4506cf0b87fb}; !- Handle

OS:Building,
  {21d5623a-5ee1-41af-9486-504170a1f45b}, !- Handle
  Building 1,                             !- Name
  ,                                       !- Building Sector Type
  ,                                       !- North Axis {deg}
  ,                                       !- Nominal Floor to Floor Height {m}
  ,                                       !- Space Type Name
  ,                                       !- Default Construction Set Name
  ;                                       !- Default Schedule Set Name

OS:BuildingStory,
  {4f48d215-8940-41d3-a755-d4d277d76b55}, !- Handle
  Level 1,                                !- Name
  ,                                       !- Nominal Z Coordinate {m}
  ,                                       !- Nominal Floor to Floor Height {m}
  ,                                       !- Default Construction Set Name
  ,                                       !- Default Schedule Set Name
  ;                                       !- Group Rendering Name

OS:BuildingStory,
  {2875f2f9-bce9-445b-8881-dd283f039a24}, !- Handle
  Level 2,                                !- Name
  ,                                       !- Nominal Z Coordinate {m}
  7,                                      !- Nominal Floor to Floor Height {m}
  ,                                       !- Default Construction Set Name
  ,                                       !- Default Schedule Set Name
  ;                                       !- Group Rendering Name

OS:Space,
  {4ecd6526-efd5-44bf-80d6-905efbdf4c5a}, !- Handle
  Space_0_0,                              !- Name
  ,                                       !- Space Type Name
  ,                                       !- Default Construction Set Name
  ,                                       !- Default Schedule Set Name
  ,                                       !- Direction of Relative North {deg}
  ,                                       !- X Origin {m}
  ,                                       !- Y Origin {m}
  ,                                       !- Z Origin {m}
  {4f48d215-8940-41d3-a755-d4d277d76b55}, !- Building Story Name
  {3915a1d9-33d3-4565-a0be-b57899ade4c1}; !- Thermal Zone Name

OS:Surface,
  {3fc5f4ec-fc72-446e-a3dd-88238c92d3dd}, !- Handle
  Surface 1,                              !- Name
  Floor,                                  !- Surface Type
  ,                                       !- Construction Name
  {4ecd6526-efd5-44bf-80d6-905efbdf4c5a}, !- Space Name
  Ground,                                 !- Outside Boundary Condition
  ,                                       !- Outside Boundary Condition Object
  NoSun,                                  !- Sun Exposure
  NoWind,                                 !- Wind Exposure
  ,                                       !- View Factor to Ground
  ,                                       !- Number of Vertices
  -10, -14, 0,                            !- X,Y,Z Vertex 1 {m}
  -10, 14, 0,                             !- X,Y,Z Vertex 2 {m}
  10, 14, 0,                              !- X,Y,Z Vertex 3 {m}
  10, -14, 0;                             !- X,Y,Z Vertex 4 {m}

OS:Surface,
  {e9201a32-205e-4dc1-9547-5136b7831c29}, !- Handle
  Surface 2,                              !- Name
  Wall,                                   !- Surface Type
  ,                                       !- Construction Name
  {4ecd6526-efd5-44bf-80d6-905efbdf4c5a}, !- Space Name
  Outdoors,                               !- Outside Boundary Condition
  ,                                       !- Outside Boundary Condition Object
  SunExposed,                             !- Sun Exposure
  WindExposed,                            !- Wind Exposure
  ,                                       !- View Factor to Ground
  ,                                       !- Number of Vertices
  -10, -14, 0,                            !- X,Y,Z Vertex 1 {m}
  -10, -14, 7,                            !- X,Y,Z Vertex 2 {m}
  -10, 14, 7,                             !- X,Y,Z Vertex 3 {m}
  -10, 14, 0;                             !- X,Y,Z Vertex 4 {m}

OS:Surface,
  {86d29c71-3ed1-42bd-af9f-0cb0c1cdbdcd}, !- Handle
  Surface 3,                              !- Name
  Wall,                                   !- Surface Type
  ,                                       !- Construction Name
  {4ecd6526-efd5-44bf-80d6-905efbdf4c5a}, !- Space Name
  Outdoors,                               !- Outside Boundary Condition
  ,                                       !- Outside Boundary Condition Object
  SunExposed,                             !- Sun Exposure
  WindExposed,                            !- Wind Exposure
  ,                                       !- View Factor to Ground
  ,                                       !- Number of Vertices
  -10, -14, 0,                            !- X,Y,Z Vertex 1 {m}
  10, -14, 0,                             !- X,Y,Z Vertex 2 {m}
  10, -14, 7,                             !- X,Y,Z Vertex 3 {m}
  -10, -14, 7;                            !- X,Y,Z Vertex 4 {m}

OS:Surface,
  {f8f0f4e8-2f70-4479-94b7-a2dd16e9ad68}, !- Handle
  Surface 4,                              !- Name
  Wall,                                   !- Surface Type
  ,                                       !- Construction Name
  {4ecd6526-efd5-44bf-80d6-905efbdf4c5a}, !- Space Name
  Surface,                                !- Outside Boundary Condition
  {30cafd4c-164c-4d4e-8cf0-ccfdd18b9ab4}, !- Outside Boundary Condition Object
  NoSun,                                  !- Sun Exposure
  NoWind,                                 !- Wind Exposure
  ,                                       !- View Factor to Ground
  ,                                       !- Number of Vertices
  10, 5, 7,                               !- X,Y,Z Vertex 1 {m}
  10, 5, 0,                               !- X,Y,Z Vertex 2 {m}
  10, 14, 0,                              !- X,Y,Z Vertex 3 {m}
  10, 14, 7;                              !- X,Y,Z Vertex 4 {m}

OS:Surface,
  {7d257134-06a7-4952-9d15-2fb73d6ba6af}, !- Handle
  Surface 5,                              !- Name
  Wall,                                   !- Surface Type
  ,                                       !- Construction Name
  {4ecd6526-efd5-44bf-80d6-905efbdf4c5a}, !- Space Name
  Outdoors,                               !- Outside Boundary Condition
  ,                                       !- Outside Boundary Condition Object
  SunExposed,                             !- Sun Exposure
  WindExposed,                            !- Wind Exposure
  ,                                       !- View Factor to Ground
  ,                                       !- Number of Vertices
  10, 14, 0,                              !- X,Y,Z Vertex 1 {m}
  -10, 14, 0,                             !- X,Y,Z Vertex 2 {m}
  -10, 14, 7,                             !- X,Y,Z Vertex 3 {m}
  10, 14, 7;                              !- X,Y,Z Vertex 4 {m}

OS:Surface,
  {e306ee43-0f61-4124-824f-fe76730702b5}, !- Handle
  Surface 6,                              !- Name
  RoofCeiling,                            !- Surface Type
  ,                                       !- Construction Name
  {4ecd6526-efd5-44bf-80d6-905efbdf4c5a}, !- Space Name
  Outdoors,                               !- Outside Boundary Condition
  ,                                       !- Outside Boundary Condition Object
  SunExposed,                             !- Sun Exposure
  WindExposed,                            !- Wind Exposure
  ,                                       !- View Factor to Ground
  ,                                       !- Number of Vertices
  -10, -14, 7,                            !- X,Y,Z Vertex 1 {m}
  10, -14, 7,                             !- X,Y,Z Vertex 2 {m}
  10, 14, 7,                              !- X,Y,Z Vertex 3 {m}
  -10, 14, 7;                             !- X,Y,Z Vertex 4 {m}

OS:Space,
  {14cc5ea3-adcf-4760-88ec-d02473788cd9}, !- Handle
  Space_2_0,                              !- Name
  ,                                       !- Space Type Name
  ,                                       !- Default Construction Set Name
  ,                                       !- Default Schedule Set Name
  ,                                       !- Direction of Relative North {deg}
  ,                                       !- X Origin {m}
  ,                                       !- Y Origin {m}
  ,                                       !- Z Origin {m}
  {4f48d215-8940-41d3-a755-d4d277d76b55}, !- Building Story Name
  {dc9fbfc6-cf0b-4f4b-857b-2dce7907a930}; !- Thermal Zone Name

OS:Surface,
  {47f96390-b6b9-42bc-9b91-a95d5ccb37d5}, !- Handle
  Surface 7,                              !- Name
  Floor,                                  !- Surface Type
  ,                                       !- Construction Name
  {14cc5ea3-adcf-4760-88ec-d02473788cd9}, !- Space Name
  Ground,                                 !- Outside Boundary Condition
  ,                                       !- Outside Boundary Condition Object
  NoSun,                                  !- Sun Exposure
  NoWind,                                 !- Wind Exposure
  ,                                       !- View Factor to Ground
  ,                                       !- Number of Vertices
  10, 5, 0,                               !- X,Y,Z Vertex 1 {m}
  10, 15, 0,                              !- X,Y,Z Vertex 2 {m}
  30, 15, 0,                              !- X,Y,Z Vertex 3 {m}
  30, 5, 0;                               !- X,Y,Z Vertex 4 {m}

OS:Surface,
  {30cafd4c-164c-4d4e-8cf0-ccfdd18b9ab4}, !- Handle
  Surface 8,                              !- Name
  Wall,                                   !- Surface Type
  ,                                       !- Construction Name
  {14cc5ea3-adcf-4760-88ec-d02473788cd9}, !- Space Name
  Surface,                                !- Outside Boundary Condition
  {f8f0f4e8-2f70-4479-94b7-a2dd16e9ad68}, !- Outside Boundary Condition Object
  NoSun,                                  !- Sun Exposure
  NoWind,                                 !- Wind Exposure
  ,                                       !- View Factor to Ground
  ,                                       !- Number of Vertices
  10, 14, 7,                              !- X,Y,Z Vertex 1 {m}
  10, 14, 0,                              !- X,Y,Z Vertex 2 {m}
  10, 5, 0,                               !- X,Y,Z Vertex 3 {m}
  10, 5, 7;                               !- X,Y,Z Vertex 4 {m}

OS:Surface,
  {2b08cb16-1c82-4722-bb30-590fb799199b}, !- Handle
  Surface 9,                              !- Name
  Wall,                                   !- Surface Type
  ,                                       !- Construction Name
  {14cc5ea3-adcf-4760-88ec-d02473788cd9}, !- Space Name
  Surface,                                !- Outside Boundary Condition
  {2babbf07-14bd-4986-b0d7-355c14d70684}, !- Outside Boundary Condition Object
  NoSun,                                  !- Sun Exposure
  NoWind,                                 !- Wind Exposure
  ,                                       !- View Factor to Ground
  ,                                       !- Number of Vertices
  10, 5, 0,                               !- X,Y,Z Vertex 1 {m}
  30, 5, 0,                               !- X,Y,Z Vertex 2 {m}
  30, 5, 7,                               !- X,Y,Z Vertex 3 {m}
  10, 5, 7;                               !- X,Y,Z Vertex 4 {m}

OS:Surface,
  {9243144c-44b8-4b77-b808-ce237ba5f05a}, !- Handle
  Surface 10,                             !- Name
  Wall,                                   !- Surface Type
  ,                                       !- Construction Name
  {14cc5ea3-adcf-4760-88ec-d02473788cd9}, !- Space Name
  Outdoors,                               !- Outside Boundary Condition
  ,                                       !- Outside Boundary Condition Object
  SunExposed,                             !- Sun Exposure
  WindExposed,                            !- Wind Exposure
  ,                                       !- View Factor to Ground
  ,                                       !- Number of Vertices
  30, 5, 0,                               !- X,Y,Z Vertex 1 {m}
  30, 15, 0,                              !- X,Y,Z Vertex 2 {m}
  30, 15, 7,                              !- X,Y,Z Vertex 3 {m}
  30, 5, 7;                               !- X,Y,Z Vertex 4 {m}

OS:Surface,
  {dedb5887-e4df-4785-8ad2-597b37c865c3}, !- Handle
  Surface 11,                             !- Name
  Wall,                                   !- Surface Type
  ,                                       !- Construction Name
  {14cc5ea3-adcf-4760-88ec-d02473788cd9}, !- Space Name
  Outdoors,                               !- Outside Boundary Condition
  ,                                       !- Outside Boundary Condition Object
  SunExposed,                             !- Sun Exposure
  WindExposed,                            !- Wind Exposure
  ,                                       !- View Factor to Ground
  ,                                       !- Number of Vertices
  30, 15, 0,                              !- X,Y,Z Vertex 1 {m}
  10, 15, 0,                              !- X,Y,Z Vertex 2 {m}
  10, 15, 7,                              !- X,Y,Z Vertex 3 {m}
  30, 15, 7;                              !- X,Y,Z Vertex 4 {m}

OS:Surface,
  {f8e5586e-4327-4bfd-9988-ceebc01d3def}, !- Handle
  Surface 12,                             !- Name
  RoofCeiling,                            !- Surface Type
  ,                                       !- Construction Name
  {14cc5ea3-adcf-4760-88ec-d02473788cd9}, !- Space Name
  Outdoors,                               !- Outside Boundary Condition
  ,                                       !- Outside Boundary Condition Object
  SunExposed,                             !- Sun Exposure
  WindExposed,                            !- Wind Exposure
  ,                                       !- View Factor to Ground
  ,                                       !- Number of Vertices
  10, 5, 7,                               !- X,Y,Z Vertex 1 {m}
  30, 5, 7,                               !- X,Y,Z Vertex 2 {m}
  30, 15, 7,                              !- X,Y,Z Vertex 3 {m}
  10, 15, 7;                              !- X,Y,Z Vertex 4 {m}

OS:Space,
  {4c2ab1c5-e681-4bed-8f38-67f12d1933ea}, !- Handle
  Space_1_0,                              !- Name
  ,                                       !- Space Type Name
  ,                                       !- Default Construction Set Name
  ,                                       !- Default Schedule Set Name
  ,                                       !- Direction of Relative North {deg}
  ,                                       !- X Origin {m}
  ,                                       !- Y Origin {m}
  ,                                       !- Z Origin {m}
  {4f48d215-8940-41d3-a755-d4d277d76b55}, !- Building Story Name
  {7ef2b58b-872e-410c-9e58-410c1507c4de}; !- Thermal Zone Name

OS:Surface,
  {46d3afe6-2055-4c43-a8e7-c378783cd2a2}, !- Handle
  Surface 13,                             !- Name
  Floor,                                  !- Surface Type
  ,                                       !- Construction Name
  {4c2ab1c5-e681-4bed-8f38-67f12d1933ea}, !- Space Name
  Ground,                                 !- Outside Boundary Condition
  ,                                       !- Outside Boundary Condition Object
  NoSun,                                  !- Sun Exposure
  NoWind,                                 !- Wind Exposure
  ,                                       !- View Factor to Ground
  ,                                       !- Number of Vertices
  10, -5, 0,                              !- X,Y,Z Vertex 1 {m}
  10, 5, 0,                               !- X,Y,Z Vertex 2 {m}
  30, 5, 0,                               !- X,Y,Z Vertex 3 {m}
  30, -5, 0;                              !- X,Y,Z Vertex 4 {m}

OS:Surface,
  {d3e08f94-f64c-4eb1-be95-dadffed582b7}, !- Handle
  Surface 14,                             !- Name
  Wall,                                   !- Surface Type
  ,                                       !- Construction Name
  {4c2ab1c5-e681-4bed-8f38-67f12d1933ea}, !- Space Name
  Surface,                                !- Outside Boundary Condition
  {46b74199-4f07-42dd-af15-a2d1ee56fc49}, !- Outside Boundary Condition Object
  NoSun,                                  !- Sun Exposure
  NoWind,                                 !- Wind Exposure
  ,                                       !- View Factor to Ground
  ,                                       !- Number of Vertices
  10, 5, 7,                               !- X,Y,Z Vertex 1 {m}
  10, 5, 0,                               !- X,Y,Z Vertex 2 {m}
  10, -5, 0,                              !- X,Y,Z Vertex 3 {m}
  10, -5, 7;                              !- X,Y,Z Vertex 4 {m}

OS:Surface,
  {bc1af579-ba11-42d5-b54b-f9a51a84ac40}, !- Handle
  Surface 15,                             !- Name
  Wall,                                   !- Surface Type
  ,                                       !- Construction Name
  {4c2ab1c5-e681-4bed-8f38-67f12d1933ea}, !- Space Name
  Surface,                                !- Outside Boundary Condition
  {eba0efaa-eccd-49de-8388-417557554c16}, !- Outside Boundary Condition Object
  NoSun,                                  !- Sun Exposure
  NoWind,                                 !- Wind Exposure
  ,                                       !- View Factor to Ground
  ,                                       !- Number of Vertices
  10, -5, 0,                              !- X,Y,Z Vertex 1 {m}
  30, -5, 0,                              !- X,Y,Z Vertex 2 {m}
  30, -5, 7,                              !- X,Y,Z Vertex 3 {m}
  10, -5, 7;                              !- X,Y,Z Vertex 4 {m}

OS:Surface,
  {04a94594-5e6f-4b7c-a73d-2780367fa542}, !- Handle
  Surface 16,                             !- Name
  Wall,                                   !- Surface Type
  ,                                       !- Construction Name
  {4c2ab1c5-e681-4bed-8f38-67f12d1933ea}, !- Space Name
  Outdoors,                               !- Outside Boundary Condition
  ,                                       !- Outside Boundary Condition Object
  SunExposed,                             !- Sun Exposure
  WindExposed,                            !- Wind Exposure
  ,                                       !- View Factor to Ground
  ,                                       !- Number of Vertices
  30, -5, 0,                              !- X,Y,Z Vertex 1 {m}
  30, 5, 0,                               !- X,Y,Z Vertex 2 {m}
  30, 5, 7,                               !- X,Y,Z Vertex 3 {m}
  30, -5, 7;                              !- X,Y,Z Vertex 4 {m}

OS:Surface,
  {2babbf07-14bd-4986-b0d7-355c14d70684}, !- Handle
  Surface 17,                             !- Name
  Wall,                                   !- Surface Type
  ,                                       !- Construction Name
  {4c2ab1c5-e681-4bed-8f38-67f12d1933ea}, !- Space Name
  Surface,                                !- Outside Boundary Condition
  {2b08cb16-1c82-4722-bb30-590fb799199b}, !- Outside Boundary Condition Object
  NoSun,                                  !- Sun Exposure
  NoWind,                                 !- Wind Exposure
  ,                                       !- View Factor to Ground
  ,                                       !- Number of Vertices
  30, 5, 0,                               !- X,Y,Z Vertex 1 {m}
  10, 5, 0,                               !- X,Y,Z Vertex 2 {m}
  10, 5, 7,                               !- X,Y,Z Vertex 3 {m}
  30, 5, 7;                               !- X,Y,Z Vertex 4 {m}

OS:Surface,
  {52dbdfa3-d85c-4453-abc8-225b8c706941}, !- Handle
  Surface 18,                             !- Name
  RoofCeiling,                            !- Surface Type
  ,                                       !- Construction Name
  {4c2ab1c5-e681-4bed-8f38-67f12d1933ea}, !- Space Name
  Outdoors,                               !- Outside Boundary Condition
  ,                                       !- Outside Boundary Condition Object
  SunExposed,                             !- Sun Exposure
  WindExposed,                            !- Wind Exposure
  ,                                       !- View Factor to Ground
  ,                                       !- Number of Vertices
  10, -5, 7,                              !- X,Y,Z Vertex 1 {m}
  30, -5, 7,                              !- X,Y,Z Vertex 2 {m}
  30, 5, 7,                               !- X,Y,Z Vertex 3 {m}
  10, 5, 7;                               !- X,Y,Z Vertex 4 {m}

OS:Space,
  {6ee39e13-4766-4fdf-8e2d-ad51583fc60d}, !- Handle
  Space_3_0,                              !- Name
  ,                                       !- Space Type Name
  ,                                       !- Default Construction Set Name
  ,                                       !- Default Schedule Set Name
  ,                                       !- Direction of Relative North {deg}
  ,                                       !- X Origin {m}
  ,                                       !- Y Origin {m}
  ,                                       !- Z Origin {m}
  {4f48d215-8940-41d3-a755-d4d277d76b55}, !- Building Story Name
  {68431890-3229-4e66-8816-dd26fe4a617d}; !- Thermal Zone Name

OS:Surface,
  {d2fdfd40-2bcf-4e08-ab4d-8bcf6bfcd9a5}, !- Handle
  Surface 19,                             !- Name
  Floor,                                  !- Surface Type
  ,                                       !- Construction Name
  {6ee39e13-4766-4fdf-8e2d-ad51583fc60d}, !- Space Name
  Ground,                                 !- Outside Boundary Condition
  ,                                       !- Outside Boundary Condition Object
  NoSun,                                  !- Sun Exposure
  NoWind,                                 !- Wind Exposure
  ,                                       !- View Factor to Ground
  ,                                       !- Number of Vertices
  10, -15, 0,                             !- X,Y,Z Vertex 1 {m}
  10, -5, 0,                              !- X,Y,Z Vertex 2 {m}
  30, -5, 0,                              !- X,Y,Z Vertex 3 {m}
  30, -15, 0;                             !- X,Y,Z Vertex 4 {m}

OS:Surface,
  {379d34ab-d6e7-45ad-8761-eb80a4b25225}, !- Handle
  Surface 20,                             !- Name
  Wall,                                   !- Surface Type
  ,                                       !- Construction Name
  {6ee39e13-4766-4fdf-8e2d-ad51583fc60d}, !- Space Name
  Surface,                                !- Outside Boundary Condition
  {e475e684-f0f5-4f43-95ee-b4eb1f9b951c}, !- Outside Boundary Condition Object
  NoSun,                                  !- Sun Exposure
  NoWind,                                 !- Wind Exposure
  ,                                       !- View Factor to Ground
  ,                                       !- Number of Vertices
  10, -5, 7,                              !- X,Y,Z Vertex 1 {m}
  10, -5, 0,                              !- X,Y,Z Vertex 2 {m}
  10, -14, 0,                             !- X,Y,Z Vertex 3 {m}
  10, -14, 7;                             !- X,Y,Z Vertex 4 {m}

OS:Surface,
  {68da0fa1-5a84-472e-bfb4-9e56859df532}, !- Handle
  Surface 21,                             !- Name
  Wall,                                   !- Surface Type
  ,                                       !- Construction Name
  {6ee39e13-4766-4fdf-8e2d-ad51583fc60d}, !- Space Name
  Outdoors,                               !- Outside Boundary Condition
  ,                                       !- Outside Boundary Condition Object
  SunExposed,                             !- Sun Exposure
  WindExposed,                            !- Wind Exposure
  ,                                       !- View Factor to Ground
  ,                                       !- Number of Vertices
  10, -15, 0,                             !- X,Y,Z Vertex 1 {m}
  30, -15, 0,                             !- X,Y,Z Vertex 2 {m}
  30, -15, 7,                             !- X,Y,Z Vertex 3 {m}
  10, -15, 7;                             !- X,Y,Z Vertex 4 {m}

OS:Surface,
  {f228b179-5e5a-4cec-9295-ab802b288ffd}, !- Handle
  Surface 22,                             !- Name
  Wall,                                   !- Surface Type
  ,                                       !- Construction Name
  {6ee39e13-4766-4fdf-8e2d-ad51583fc60d}, !- Space Name
  Outdoors,                               !- Outside Boundary Condition
  ,                                       !- Outside Boundary Condition Object
  SunExposed,                             !- Sun Exposure
  WindExposed,                            !- Wind Exposure
  ,                                       !- View Factor to Ground
  ,                                       !- Number of Vertices
  30, -15, 0,                             !- X,Y,Z Vertex 1 {m}
  30, -5, 0,                              !- X,Y,Z Vertex 2 {m}
  30, -5, 7,                              !- X,Y,Z Vertex 3 {m}
  30, -15, 7;                             !- X,Y,Z Vertex 4 {m}

OS:Surface,
  {eba0efaa-eccd-49de-8388-417557554c16}, !- Handle
  Surface 23,                             !- Name
  Wall,                                   !- Surface Type
  ,                                       !- Construction Name
  {6ee39e13-4766-4fdf-8e2d-ad51583fc60d}, !- Space Name
  Surface,                                !- Outside Boundary Condition
  {bc1af579-ba11-42d5-b54b-f9a51a84ac40}, !- Outside Boundary Condition Object
  NoSun,                                  !- Sun Exposure
  NoWind,                                 !- Wind Exposure
  ,                                       !- View Factor to Ground
  ,                                       !- Number of Vertices
  30, -5, 0,                              !- X,Y,Z Vertex 1 {m}
  10, -5, 0,                              !- X,Y,Z Vertex 2 {m}
  10, -5, 7,                              !- X,Y,Z Vertex 3 {m}
  30, -5, 7;                              !- X,Y,Z Vertex 4 {m}

OS:Surface,
  {a1116eb0-91cc-4881-82cf-3530f7d6f94a}, !- Handle
  Surface 24,                             !- Name
  RoofCeiling,                            !- Surface Type
  ,                                       !- Construction Name
  {6ee39e13-4766-4fdf-8e2d-ad51583fc60d}, !- Space Name
  Outdoors,                               !- Outside Boundary Condition
  ,                                       !- Outside Boundary Condition Object
  SunExposed,                             !- Sun Exposure
  WindExposed,                            !- Wind Exposure
  ,                                       !- View Factor to Ground
  ,                                       !- Number of Vertices
  10, -15, 7,                             !- X,Y,Z Vertex 1 {m}
  30, -15, 7,                             !- X,Y,Z Vertex 2 {m}
  30, -5, 7,                              !- X,Y,Z Vertex 3 {m}
  10, -5, 7;                              !- X,Y,Z Vertex 4 {m}

OS:ThermalZone,
  {dc9fbfc6-cf0b-4f4b-857b-2dce7907a930}, !- Handle
  Zone_2_0,                               !- Name
  ,                                       !- Multiplier
  ,                                       !- Ceiling Height {m}
  ,                                       !- Volume {m3}
  ,                                       !- Floor Area {m2}
  ,                                       !- Zone Inside Convection Algorithm
  ,                                       !- Zone Outside Convection Algorithm
  ,                                       !- Zone Conditioning Equipment List Name
  {33cf8d97-7af3-4d55-85dd-fe8b60b6e19f}, !- Zone Air Inlet Port List
  {6d7e1b6f-7613-44b0-8af6-6a481d229da2}, !- Zone Air Exhaust Port List
  {af266a22-9f3f-4c17-bde7-6970ea74a08c}, !- Zone Air Node Name
  ,                                       !- Zone Return Air Node Name
  ,                                       !- Primary Daylighting Control Name
  ,                                       !- Fraction of Zone Controlled by Primary Daylighting Control
  ,                                       !- Secondary Daylighting Control Name
  ,                                       !- Fraction of Zone Controlled by Secondary Daylighting Control
  ,                                       !- Illuminance Map Name
  ,                                       !- Group Rendering Name
  ,                                       !- Thermostat Name
  No;                                     !- Use Ideal Air Loads

OS:Node,
  {8552df86-04c0-45c0-ba0f-2e6289458f48}, !- Handle
  Node 1,                                 !- Name
  {af266a22-9f3f-4c17-bde7-6970ea74a08c}, !- Inlet Port
  ;                                       !- Outlet Port

OS:Connection,
  {af266a22-9f3f-4c17-bde7-6970ea74a08c}, !- Handle
  {e32cf765-be61-48f9-bc53-b6119cbe09bd}, !- Name
  {dc9fbfc6-cf0b-4f4b-857b-2dce7907a930}, !- Source Object
  11,                                     !- Outlet Port
  {8552df86-04c0-45c0-ba0f-2e6289458f48}, !- Target Object
  2;                                      !- Inlet Port

OS:PortList,
  {33cf8d97-7af3-4d55-85dd-fe8b60b6e19f}, !- Handle
  Port List 1,                            !- Name
  {dc9fbfc6-cf0b-4f4b-857b-2dce7907a930}; !- HVAC Component

OS:PortList,
  {6d7e1b6f-7613-44b0-8af6-6a481d229da2}, !- Handle
  Port List 2,                            !- Name
  {dc9fbfc6-cf0b-4f4b-857b-2dce7907a930}; !- HVAC Component

OS:Sizing:Zone,
  {349c5b21-44fa-4c63-9ba3-938d24366b40}, !- Handle
  {dc9fbfc6-cf0b-4f4b-857b-2dce7907a930}, !- Zone or ZoneList Name
  14,                                     !- Zone Cooling Design Supply Air Temperature {C}
  40,                                     !- Zone Heating Design Supply Air Temperature {C}